13
gdb 25168	3.10468	1.51765	1.01936	6.6101	77.7	-0.2382	-0.0866	0.1515	1063.0361	0.091003	-415.652093	-415.644946	-415.644002	-415.683992	26.649	
N	-0.0330190831	 1.2725916593	 0.3686562443	-0.517815
C	-0.0360423219	 0.0615234685	 0.0111202561	 0.358154
O	 1.1446330431	-0.5627238132	-0.4163227469	-0.230062
C	 1.1772024884	-1.8494555379	-0.803577592	 0.088399
C	 0.0924846353	-2.6469329478	-0.8163449044	-0.189427
C	-1.1544292852	-2.0888615653	-0.3948458036	-0.139588
C	-1.2280588685	-0.7897063727	 0.0045237041	 0.036637
C	-2.4632455505	-0.2184550617	 0.4275055051	 0.263601
N	-3.4886696151	 0.2014302096	 0.7625815755	-0.330185
H	 0.8976744653	 1.6824126531	 0.298446206	 0.233516
H	 2.1754193976	-2.1503832488	-1.0978760613	 0.153102
H	 0.1746057641	-3.675585194	-1.1374619195	 0.129918
H	-2.0493721094	-2.7003556191	-0.3916363933	 0.143751
91.3042	156.6968	184.6	353.1195	387.428	466.5316	484.6278	551.8104	574.2073	578.4824	722.6272	766.3586	792.1039	850.9112	884.3267	944.5381	964.0682	970.0437	1045.3354	1121.0581	1167.4906	1251.0335	1291.3584	1383.5221	1442.4381	1589.1321	1668.9528	1746.621	2344.8692	3206.1684	3215.2573	3241.5803	3507.2187
N=C1OC=CC=C1C#N	[NH]C1=C(CC=CO1)C#N	
InChI=1S/C6H4N2O/c7-4-5-2-1-3-9-6(5)8/h1-3,8H	InChI=1S/C6H5N2O/c7-4-5-2-1-3-9-6(5)8/h1,3,8H,2H2
