16
gdb 44171	5.42282	1.02552	0.94026	2.0365	76.88	-0.2611	0.0175	0.2786	1218.0297	0.124112	-400.69566	-400.687891	-400.686947	-400.728265	29.698	
N	-0.2167615315	 1.0933799906	-0.7440279712	-0.542985
C	-0.0921850182	-0.0097902359	-0.1652237945	 0.428292
O	 1.0098436319	-0.577752936	 0.4652335984	-0.264627
C	 0.2634493362	-1.7900319127	 0.7681684542	 0.096267
C	-0.3926548697	-1.7203078354	 2.1836832668	-0.19369
C	-1.685726999	-1.1179368384	 1.5145672668	-0.256534
C	-1.0037762292	-1.1820997557	 0.1153718262	-0.16137
C	-0.5703472443	-2.9936090718	 2.8490082474	 0.298746
C	-0.7234584206	-4.0672809514	 3.3685861727	-0.439324
H	 0.6514010654	 1.6308987473	-0.7187478053	 0.231212
H	 0.7921143839	-2.6908694185	 0.4623934043	 0.10902
H	 0.1436605872	-1.0169893233	 2.8267858602	 0.123111
H	-2.5352245114	-1.7961246737	 1.5940002994	 0.130815
H	-1.9833857408	-0.1247548874	 1.852891387	 0.129187
H	-1.5566826156	-1.6071622126	-0.7186177342	 0.110484
H	-0.8541021243	-5.0078770352	 3.8438027416	 0.201397
64.6229	127.3396	170.4547	249.8733	355.6932	431.3189	445.4013	514.5268	621.7137	632.0762	641.939	720.1048	748.6931	827.825	864.3379	872.8696	891.7826	954.7627	977.0819	988.0665	1010.8265	1027.1776	1076.2068	1134.4646	1172.7652	1189.5034	1215.4495	1233.8342	1254.5468	1276.5436	1316.8096	1345.2322	1479.782	1826.8602	2235.4336	3071.8801	3088.9968	3137.7492	3147.4425	3154.7779	3478.2108	3503.9114
N=C1OC2C(CC12)C#C	[NH][C]1O[C@H]2[C@@H](C[C@@H]12)C#C	
InChI=1S/C7H7NO/c1-2-4-3-5-6(4)9-7(5)8/h1,4-6,8H,3H2	InChI=1S/C7H7NO/c1-2-4-3-5-6(4)9-7(5)8/h1,4-6,8H,3H2/t4-,5-,6+/m1/s1
