21
gdb 41902	2.14945	1.93911	1.70193	1.9091	76.45	-0.2359	0.0659	0.3018	964.5691	0.186784	-424.229701	-424.222257	-424.221313	-424.261663	29.927	
C	-0.0443562209	 1.5277923821	-0.1620055613	-0.209658
C	 1.3510085829	 2.1408896348	 0.1080479682	-0.220316
C	 2.4332362593	 1.048250461	 0.2042012768	 0.088426
C	 2.5196399936	 0.3388585245	 1.5775628533	-0.088904
O	 1.6112304025	-0.7282550795	 1.7495938844	-0.231287
C	 0.2564917111	-0.4163803998	 1.4931801873	-0.083911
C	-0.0085864919	 0.003079426	 0.0237967498	-0.060001
C	 1.0576662234	-0.5878909784	-0.9096240897	-0.048859
O	 2.3044061794	 0.1159275896	-0.8587055901	-0.274333
H	-0.8023568446	 1.9678955248	 0.4940965772	 0.096059
H	-0.3573186332	 1.7495019835	-1.1879273024	 0.100787
H	 1.6218220795	 2.821682588	-0.7042162188	 0.105023
H	 1.3572012647	 2.7365949694	 1.0270807827	 0.096618
H	 3.410285079	 1.5199162656	 0.0472710428	 0.080886
H	 3.508135966	-0.1176552521	 1.6824283953	 0.111182
H	 2.406088108	 1.0907486415	 2.378044902	 0.080388
H	-0.2878910021	-1.33703028	 1.7237622687	 0.10819
H	-0.1052470641	 0.3644623114	 2.1837909934	 0.083827
H	-0.9786350497	-0.4132969467	-0.2720633456	 0.071344
H	 1.2358393743	-1.6435669558	-0.6703651999	 0.102542
H	 0.7041457927	-0.5302931498	-1.9475284639	 0.091997
60.6142	240.4216	263.2254	275.988	340.9604	383.765	450.1002	482.9099	547.9218	736.1437	767.706	773.5174	802.7924	858.1616	894.1158	925.2392	946.4412	967.9427	991.7384	1019.9546	1029.3829	1080.6467	1100.8056	1106.1267	1153.5357	1176.2992	1225.0771	1246.278	1252.6644	1280.9623	1291.0504	1320.955	1348.4391	1353.4065	1357.9954	1367.4893	1383.5755	1394.1055	1421.2378	1423.6991	1480.6279	1493.1073	1497.4312	1506.723	1517.8402	2954.8614	2961.5153	3008.3259	3029.6346	3035.1574	3041.193	3045.5078	3052.1093	3068.092	3077.5943	3083.8034	3091.7803
C1CC2COCC1CO2	C1C[C@H]2COC[C@@H]1CO2	
InChI=1S/C7H12O2/c1-2-7-5-8-3-6(1)4-9-7/h6-7H,1-5H2	InChI=1S/C7H12O2/c1-2-7-5-8-3-6(1)4-9-7/h6-7H,1-5H2/t6-,7+/m1/s1
