19
gdb 31245	2.38694	1.33058	0.90729	1.4873	80.3	-0.1923	0.0236	0.2159	1322.6634	0.158526	-423.047739	-423.03842	-423.037476	-423.082853	33.419	
C	 0.2599087535	 1.5621200008	-0.2467275378	-0.369375
C	-0.0894312762	 0.1007246384	 0.087165856	-0.296298
C	 0.5683728165	-0.4071048555	 1.3197120959	 0.252039
C	 0.0886766313	-0.8117178288	 2.5338566741	 0.229251
O	-1.2337468222	-0.824490399	 2.8483860693	-0.267606
C	-1.561456681	-1.2884269154	 4.1430804416	-0.247537
C	 1.2183065605	-1.1893498564	 3.3364014876	-0.316207
C	 2.3046766427	-0.9826697083	 2.545767336	-0.008973
O	 1.9358926299	-0.512945891	 1.3315350532	-0.182879
H	 1.3389603721	 1.6822377977	-0.3794826847	 0.126836
H	-0.2340030259	 1.8779960905	-1.1709459995	 0.109249
H	-0.0565723682	 2.2326374007	 0.5579898044	 0.120045
H	-1.169306424	-0.0047441887	 0.2316103546	 0.122674
H	 0.1773115814	-0.5375283594	-0.7661371586	 0.111323
H	-2.6484422132	-1.2343794922	 4.2259019906	 0.133395
H	-1.2407686409	-2.3280330976	 4.2938767514	 0.120363
H	-1.1101741124	-0.6612507543	 4.9236960543	 0.120222
H	 1.2222538289	-1.5603182066	 4.3480632428	 0.112411
H	 3.3624800774	-1.119241815	 2.6985888487	 0.131066
49.5588	54.1872	140.781	174.0413	209.8102	235.8345	300.1713	316.2717	388.2571	529.2778	597.6623	630.8318	690.1001	716.1837	732.2429	784.1099	798.1726	903.9798	968.1237	1010.7298	1061.4239	1082.9166	1103.5288	1163.1452	1180.0163	1194.519	1215.2512	1243.9589	1296.1028	1322.3566	1357.9467	1403.6933	1448.4502	1473.0748	1489.4688	1492.5452	1496.6966	1508.1013	1508.3384	1540.5527	1679.3062	2998.309	3015.0299	3038.5166	3054.4934	3082.1816	3109.6235	3118.5555	3130.7008	3261.5364	3284.1827
CCC1=C(OC)C=CO1	CCc1c(OC)cco1	
InChI=1S/C7H10O2/c1-3-6-7(8-2)4-5-9-6/h4-5H,3H2,1-2H3	InChI=1S/C7H10O2/c1-3-6-7(8-2)4-5-9-6/h4-5H,3H2,1-2H3
