14
gdb 116841	3.76114	0.60143	0.52188	4.8123	76.46	-0.294	-0.1069	0.1871	1950.9744	0.098233	-436.66404	-436.654198	-436.653253	-436.701627	32.155	
O	-0.0654088303	 1.4198508903	 0.0101742357	-0.410016
C	 0.061930482	 0.012370231	 0.0015255259	-0.06738
C	-1.3683169116	-0.5446237272	 0.0119403914	-0.337114
C	-1.4165286453	-1.9940967563	 0.0045531731	 0.020287
C	-1.4411213312	-3.2020182896	-0.0015954803	 0.101759
C	-1.4684799063	-4.633038667	-0.0087434233	 0.19253
O	-2.4661933042	-5.3173414363	-0.0026127465	-0.249606
C	-0.1291538276	-5.2559500186	-0.0251061498	 0.223398
N	 0.9168476196	-5.7486003238	-0.0379233405	-0.318627
H	 0.8149038762	 1.8068527924	 0.0044035372	 0.296887
H	 0.5887718625	-0.3498972011	-0.8933426729	 0.110453
H	 0.605392637	-0.3593264706	 0.8824770674	 0.110453
H	-1.8934163191	-0.1632698312	 0.8964956538	 0.163486
H	-1.9098741417	-0.1537951619	-0.8584427511	 0.163489
16.1729	49.884	74.6876	143.9044	157.0969	230.2101	241.8731	293.7029	346.3351	421.0819	449.1071	548.7005	615.8485	705.0612	773.1801	783.4347	966.9321	1008.0542	1078.6192	1089.9585	1216.7884	1222.2863	1241.2852	1299.9871	1326.2779	1454.3616	1459.6342	1528.8789	1745.8506	2333.4217	2340.1496	2989.3054	3021.9623	3035.1068	3073.508	3836.4686
OCCC#CC(=O)C#N	OCCC#CC(=O)C#N	
InChI=1S/C6H5NO2/c7-5-6(9)3-1-2-4-8/h8H,2,4H2	InChI=1S/C6H5NO2/c7-5-6(9)3-1-2-4-8/h8H,2,4H2
