16
gdb 17023	4.12073	1.60224	1.33452	2.8977	70.05	-0.2601	0.0161	0.2762	931.736	0.131871	-342.72782	-342.720793	-342.719849	-342.758955	26.839	
C	-0.0574597707	 1.61460834	 0.0123340775	-0.437528
C	 0.0098041462	 0.0999117981	 0.0137118847	 0.050237
C	 1.2332866422	-0.6278425376	-0.623334625	-0.042359
N	 2.0600740722	-0.1150563412	 0.5380892104	-0.322168
C	 0.7785502781	-0.6464117816	 1.1470183762	-0.042355
C	 0.87377834	-1.9034942398	 0.2146169079	-0.146198
C	-0.3066534658	-2.6954531892	-0.0968989295	 0.262316
N	-1.2418926407	-3.3296456965	-0.3437810958	-0.334235
H	 0.908776138	 2.0531206039	 0.2649561685	 0.14679
H	-0.3638176083	 1.9812927397	-0.9731711094	 0.11999
H	-0.8023946702	 1.9633676207	 0.7355041573	 0.119991
H	-0.9525218655	-0.3511364364	-0.2382048566	 0.102664
H	 1.59254015	-0.600410482	-1.6526886537	 0.098361
H	 2.831477195	-0.761774084	 0.7294489853	 0.212103
H	 0.5971767735	-0.641053971	 2.2224069103	 0.09836
H	 1.7254719861	-2.555572703	 0.4265448919	 0.11403
140.8582	165.2196	212.1058	290.6369	309.1136	446.7436	529.1687	531.4595	649.8587	775.1781	788.9257	793.1948	882.7702	901.2679	902.1316	1018.9994	1025.1662	1050.8595	1052.2235	1118.3132	1129.4387	1154.2841	1154.3592	1196.6114	1217.7174	1241.8731	1289.9392	1294.7218	1369.7759	1403.2172	1430.2018	1493.0025	1505.7707	2347.5773	3040.011	3079.9556	3090.9675	3096.057	3112.0532	3116.7468	3146.9588	3389.2728
CC1C2NC1C2C#N	C[C@H]1[C@H]2N[C@@H]1[C@H]2C#N	
InChI=1S/C6H8N2/c1-3-5-4(2-7)6(3)8-5/h3-6,8H,1H3	InChI=1S/C6H8N2/c1-3-5-4(2-7)6(3)8-5/h3-6,8H,1H3/t3-,4-,5+,6-
