15
gdb 66702	3.12514	1.7252	1.43248	2.5032	67.73	-0.2208	-0.0123	0.2084	903.5681	0.113178	-420.588302	-420.581762	-420.580817	-420.618954	27.03	
O	-0.1434863496	 1.3955987536	-0.100118168	-0.456868
C	 0.0263897324	 0.0383933135	-0.0331997383	 0.395358
C	 0.896924955	-0.8413747752	-1.0019327537	-0.175703
C	-0.1588042931	-1.9055347988	-0.9518749805	-0.07726
C	 1.1601639784	-2.1237580614	-0.2202257126	-0.203024
C	 0.9566119795	-1.8542331855	 1.2447075207	 0.461268
O	 1.5291993502	-2.3470640855	 2.1839340312	-0.345599
C	-0.1144280548	-0.8092053021	 1.2350470872	-0.290474
C	-1.0166526549	-1.0216381101	 0.0087507052	-0.144016
H	 0.6062708547	 1.822686927	 0.3315503647	 0.2936
H	 1.5008071186	-0.4970501665	-1.8301120963	 0.106224
H	-0.52585663	-2.5540632956	-1.7347530426	 0.1043
H	 1.8814831597	-2.8522139942	-0.5645762028	 0.110172
H	-0.5192292096	-0.3736790355	 2.137761223	 0.111759
H	-2.0939185665	-0.9521727839	 0.055662923	 0.110264
146.3909	271.3548	317.4761	351.7475	451.1749	526.6972	566.3515	601.862	691.139	732.9138	766.0602	786.418	825.1856	862.8774	877.6989	881.3665	921.0917	935.4596	969.7972	987.9299	1007.7243	1048.9676	1070.1514	1117.894	1164.9285	1190.0483	1245.4377	1251.1865	1277.8169	1301.7236	1334.5268	1476.6172	1845.9222	3208.6078	3213.258	3221.2482	3224.5854	3230.1145	3777.7659
OC12C3C4C3C(=O)C1C24	O[C@@]12[C@@H]3[C@H]4[C@@H]3C(=O)[C@@H]1[C@@H]24	
InChI=1S/C7H6O2/c8-6-2-1-3(2)7(9)4(1)5(6)7/h1-5,9H	InChI=1S/C7H6O2/c8-6-2-1-3(2)7(9)4(1)5(6)7/h1-5,9H/t1-,2+,3-,4+,5+,7-/m1/s1
