20
gdb 110026	1.97716	1.64221	1.01345	3.4553	76.32	-0.2577	0.0262	0.2838	1214.9449	0.171257	-440.305586	-440.296295	-440.295351	-440.339754	34.396	
C	-0.0289779554	 1.5442416204	 0.1555785156	-0.390724
C	-0.0855459659	 0.024040083	-0.0120520132	-0.180591
C	 0.710471094	-0.4740232592	-1.2408707713	-0.110753
C	 0.8201164843	-2.0093718029	-1.3252187153	 0.078139
O	 0.8801880946	-2.609820785	-0.0492343946	-0.425866
C	-0.4428051532	-2.3723114218	-2.1281286009	-0.120821
O	-0.6532998684	-1.2638186929	-3.0100566532	-0.239793
C	 0.000301562	-0.1510594741	-2.541239194	 0.414664
N	-0.013228549	 0.9686602471	-3.1247309122	-0.537357
H	 1.000041661	 1.8790542288	 0.3278174041	 0.11183
H	-0.3972822235	 2.0571115389	-0.7363066416	 0.148612
H	-0.6301191215	 1.8591796283	 1.0142223779	 0.1065
H	 0.3244923585	-0.4714662981	 0.8722685662	 0.120799
H	-1.1295384609	-0.3040189593	-0.091171281	 0.097934
H	 1.6943890742	 0.0008240789	-1.2364955405	 0.102437
H	 1.7090850361	-2.268348052	-1.918408919	 0.084656
H	 1.1392427231	-3.5298512499	-0.1559132251	 0.291517
H	-0.3432171846	-3.2753692336	-2.736714647	 0.110457
H	-1.297542405	-2.4888044677	-1.4504448228	 0.118708
H	-0.5895978604	 0.924259461	-3.9675769922	 0.219652
75.4879	104.7977	174.1252	184.5194	219.9434	236.8885	263.7064	317.4133	372.1711	460.9332	525.6794	629.6382	671.4686	673.6332	758.5951	851.7384	877.2313	899.2737	938.1673	1002.3616	1023.3388	1041.8063	1076.7629	1095.267	1111.8636	1129.3722	1154.0393	1214.526	1245.3535	1258.22	1284.3937	1301.4667	1341.6019	1365.2225	1377.4679	1378.2967	1414.8626	1443.4723	1488.9521	1496.601	1510.48	1521.101	1773.1416	2994.1121	3028.716	3034.1968	3036.4354	3083.5951	3090.6123	3094.7787	3101.7397	3127.954	3464.232	3831.1646
CCC1C(O)COC1=N	CC[C@H]1[C@@H](O)CO[C]1[NH]	
InChI=1S/C6H11NO2/c1-2-4-5(8)3-9-6(4)7/h4-5,7-8H,2-3H2,1H3	InChI=1S/C6H11NO2/c1-2-4-5(8)3-9-6(4)7/h4-5,7-8H,2-3H2,1H3/t4-,5-/m0/s1
