16
gdb 77332	2.5517	1.49068	1.14375	4.5628	70.67	-0.256	0.0191	0.2751	1085.7732	0.124059	-437.896867	-437.888238	-437.887294	-437.930546	30.921	
C	-0.081969079	 1.405314123	-0.043303822	-0.345193
N	-0.0486628021	-0.0392259666	-0.122384546	-0.120361
C	-1.232538337	-0.8693230195	 0.0335003799	-0.197291
C	-0.5809114845	-2.2729840979	-0.0952255027	-0.098984
O	 0.7930276394	-2.0767646066	 0.2335855614	-0.242093
C	 1.1035335895	-0.7471069819	 0.1460387859	 0.495987
O	 2.2157743474	-0.3164594865	 0.2759347512	-0.398506
C	-1.9294319474	-0.6565724061	 1.3068917574	 0.347665
C	-2.4984229443	-0.4782286256	 2.3502050953	-0.469001
H	 0.9507351092	 1.7559496925	-0.0571239669	 0.169755
H	-0.6201883821	 1.8265396493	-0.8990780074	 0.125574
H	-0.5663425087	 1.7446525163	 0.880346666	 0.135993
H	-1.9370326079	-0.6991715868	-0.7896284273	 0.120907
H	-1.0112565885	-3.0018492944	 0.591403462	 0.140544
H	-0.6577259621	-2.6406783417	-1.1240711693	 0.12359
H	-2.9997976119	-0.3242951675	 3.2742987627	 0.211414
67.4745	116.839	156.3892	181.1841	208.2391	254.0394	304.4843	449.7683	488.3249	576.6744	643.9196	669.7903	675.2569	740.5362	764.5093	817.9447	854.9054	1010.5666	1018.4566	1084.7217	1097.0076	1127.0017	1164.8597	1230.8402	1245.4548	1284.518	1361.409	1377.1124	1420.6812	1452.4434	1490.7353	1514.8377	1521.8243	1877.8732	2233.9127	3024.1758	3027.9315	3050.5122	3081.4941	3135.9867	3151.5779	3499.2757
CN1C(COC1=O)C#C	CN1[C@@H](COC1=O)C#C	
InChI=1S/C6H7NO2/c1-3-5-4-9-6(8)7(5)2/h1,5H,4H2,2H3	InChI=1S/C6H7NO2/c1-3-5-4-9-6(8)7(5)2/h1,5H,4H2,2H3/t5-/m1/s1
