16
gdb 26930	2.36392	1.66963	0.98494	2.4952	75.8	-0.1983	-0.024	0.1743	1145.412	0.124084	-437.9454	-437.936894	-437.93595	-437.978195	31.698	
C	-0.0304895576	 1.5047116907	 0.0035441977	-0.506307
C	 0.0026145357	 0.0091826613	 0.0094522931	 0.166806
C	-0.022944144	-0.8091167021	-1.0621702284	-0.138778
O	 0.0222679075	-2.1501301898	-0.6698628549	-0.190734
C	 0.0768647921	-2.1522861612	 0.6663988328	 0.398476
N	 0.1713887768	-3.322143808	 1.3215898084	-0.591056
C	 0.0638040637	-0.8576775783	 1.1742226451	-0.002996
C	 0.0640772883	-0.5857300199	 2.5798537127	 0.046698
O	 0.0948604565	-1.4570999513	 3.4483281078	-0.347979
H	 0.8617498724	 1.9261037182	 0.4801176009	 0.135933
H	-0.0806370005	 1.8924032579	-1.0172529112	 0.128212
H	-0.8985568254	 1.888043607	 0.5516927771	 0.135008
H	-0.0684458106	-0.6512491764	-2.1256979146	 0.138995
H	-0.0980856028	-4.172871262	 0.8568147399	 0.267052
H	 0.0728079109	-3.2320339281	 2.3271315028	 0.291051
H	 0.0260186671	 0.4839952119	 2.8722198507	 0.06962
139.6925	167.4801	186.9838	199.4097	260.5998	270.8805	340.3947	358.061	417.2125	521.6382	596.7323	600.1071	624.4069	681.9126	758.1307	773.4012	802.4905	1008.2979	1011.2445	1027.935	1066.1255	1092.9562	1114.6779	1238.594	1316.1505	1352.5906	1419.0078	1428.9747	1480.8205	1490.9125	1504.1628	1539.249	1641.4381	1666.7417	1727.8039	2911.0356	3030.4969	3081.3645	3114.7331	3290.9811	3513.593	3697.1335
CC1=COC(N)=C1C=O	Cc1coc(N)c1C=O	
InChI=1S/C6H7NO2/c1-4-3-9-6(7)5(4)2-8/h2-3H,7H2,1H3	InChI=1S/C6H7NO2/c1-4-3-9-6(7)5(4)2-8/h2-3H,7H2,1H3
