17
gdb 56853	3.10321	1.17475	1.01446	5.6431	72.1	-0.2476	0.0219	0.2695	1188.3875	0.136477	-417.95512	-417.946686	-417.945742	-417.98874	31.04	
N	 0.3466338313	 0.5104670631	 0.6963519756	-0.505437
C	-0.6244450697	-0.2501258733	-0.0997395383	-0.161139
C	-1.9015872324	 0.4817139303	-0.1196628215	 0.30096
N	-2.896480973	 1.066078597	-0.176353352	-0.320422
C	-0.2114895269	-0.5727265904	-1.5352797494	-0.045499
C	 0.8853698491	-1.5643649486	-1.8918229431	-0.181059
C	 0.782159784	-2.8105350181	-1.0185749419	-0.098095
O	-0.637883798	-2.9397231741	-1.2975140196	-0.276795
C	-0.567435214	-1.8523016464	-2.2238479484	 0.090433
H	 1.2222018272	-0.0046257153	 0.7181058023	 0.237509
H	 0.5451068311	 1.3968501129	 0.2398783538	 0.238392
H	-0.8137397008	-1.1971942881	 0.4175931058	 0.151571
H	-0.2148055389	 0.2854268897	-2.2041579959	 0.109977
H	 1.7179861437	-1.3074848638	-2.5322627715	 0.109673
H	 1.3288999587	-3.6658263042	-1.4291338104	 0.122259
H	 0.9933191532	-2.7231927251	 0.0540088198	 0.109136
H	-1.1163641846	-1.9429001755	-3.1536616053	 0.118536
53.94	123.9585	158.1801	213.9187	217.4245	286.8478	328.8804	491.5938	507.5944	555.5721	625.9583	765.7242	787.4034	812.5791	864.2165	894.7949	956.7805	961.2506	981.4885	1006.9333	1042.2087	1051.8688	1073.2306	1116.5772	1126.6445	1164.983	1167.7519	1210.6657	1259.6761	1288.2602	1316.5662	1362.7897	1399.0556	1435.7836	1518.0688	1656.3911	2363.2241	3025.787	3062.4904	3077.1618	3141.0393	3186.9964	3208.8681	3486.1917	3569.3186
NC(C#N)C1C2COC12	N[C@@H](C#N)[C@H]1[C@H]2CO[C@@H]12	
InChI=1S/C6H8N2O/c7-1-4(8)5-3-2-9-6(3)5/h3-6H,2,8H2	InChI=1S/C6H8N2O/c7-1-4(8)5-3-2-9-6(3)5/h3-6H,2,8H2/t3-,4+,5-,6-/m1/s1
