18
gdb 74602	3.35062	1.82152	1.39062	1.7269	81.12	-0.2128	0.001	0.2138	956.6439	0.148592	-364.692861	-364.686067	-364.685123	-364.723663	28.207	
C	-0.0905344339	 1.4382909114	 0.0435335368	-0.511189
C	-0.0192524424	-0.046845786	-0.0086030029	 0.215383
C	-0.0577543198	-0.9155195212	-1.0334341962	-0.192508
C	 0.1139957434	-2.3059129401	-0.4059719842	-0.079239
C	-0.7211443553	-2.2887828105	 0.8898194081	-0.050927
C	 0.4326411373	-2.719189472	 1.8199874241	-0.044835
C	 0.4279853926	-1.3846486671	 2.6185446588	-0.345881
C	 0.1505962058	-1.0149269159	 1.1525525305	 0.245457
N	 1.2059487811	-2.0444854614	 0.6628871504	-0.156488
H	 0.8169938661	 1.8620878858	 0.4911623503	 0.136788
H	-0.2091324771	 1.8659094923	-0.9557279961	 0.129511
H	-0.9312544056	 1.7775020108	 0.6618300195	 0.129405
H	-0.144290196	-0.6972264705	-2.0892246224	 0.103158
H	 0.2265109563	-3.1708664695	-1.0621378548	 0.062886
H	-1.8033618484	-2.3985075087	 1.030000305	 0.061768
H	 0.6978366645	-3.7140163473	 2.1781404749	 0.081087
H	-0.3860829479	-1.2340653512	 3.3315690365	 0.102608
H	 1.3918984694	-1.066667869	 3.0244653918	 0.113016
171.7442	185.2986	236.0245	385.63	469.8528	483.5427	545.4413	578.8704	694.8288	734.6445	768.3269	828.5252	840.4864	851.6095	866.6753	888.9731	916.485	938.3213	996.0778	1007.7233	1027.0434	1059.338	1090.6162	1102.8744	1127.5896	1133.1429	1157.9308	1199.5448	1201.2302	1214.1896	1258.463	1274.4965	1287.4088	1329.5045	1414.1013	1476.9254	1484.3525	1488.1602	1658.935	3018.8074	3030.5219	3059.2184	3065.023	3098.9701	3111.2219	3113.2177	3127.6859	3224.6695
CC1=CC2C3C4CC13N24	CC1=C[C@@H]2[C@H]3[C@@H]4C[C@]13N24	
InChI=1S/C8H9N/c1-4-2-5-7-6-3-8(4,7)9(5)6/h2,5-7H,3H2,1H3	InChI=1S/C8H9N/c1-4-2-5-7-6-3-8(4,7)9(5)6/h2,5-7H,3H2,1H3/t5-,6+,7+,8+/m1/s1
