16
gdb 84778	2.40214	1.55625	1.24119	3.9315	69.91	-0.2668	-0.0052	0.2615	1039.1066	0.123526	-437.898532	-437.889964	-437.88902	-437.931543	32.106	
O	 0.3739147701	 0.9083088502	-0.733455158	-0.4277
C	 0.153047839	-0.2108574406	 0.0780999165	 0.091056
C	 0.496927038	-0.0578993126	 1.5456228742	-0.116705
C	-0.3976059951	-0.6413418624	 2.3369629205	-0.067586
C	-1.5239017266	-1.2755705632	 1.555297706	-0.292526
C	-1.3636822587	-0.6368452188	 0.1470749499	 0.1952
O	-2.09187047	 0.5833310548	 0.055833083	-0.465415
C	-1.7563626051	-1.5422955715	-0.9418753182	 0.230221
N	-2.0974909473	-2.2542691613	-1.7861946581	-0.336349
H	-0.3471376956	 1.5260968547	-0.5561096368	 0.296297
H	 0.7386194261	-1.0256567214	-0.365557898	 0.117398
H	 1.4069561801	 0.4417819244	 1.8542881989	 0.113148
H	-0.3433220255	-0.7037921762	 3.4175465062	 0.108922
H	-1.4215156386	-2.3669536807	 1.5088808045	 0.134544
H	-2.5189476094	-1.0623301567	 1.9606446127	 0.11726
H	-3.0224218714	 0.3862538913	-0.0923208132	 0.302235
93.2739	145.2053	163.9391	202.9853	281.4299	300.414	397.015	408.1134	414.0137	496.5469	543.6131	592.829	611.0906	716.4203	763.455	827.3806	921.1422	961.5411	969.6561	980.955	1039.69	1084.3854	1095.199	1116.2485	1155.1931	1206.4253	1279.8158	1292.5913	1317.4279	1353.9544	1369.8131	1444.5028	1472.4201	1689.3019	2352.1953	3031.9775	3035.7056	3071.9669	3195.4824	3222.214	3777.4655	3826.782
OC1C=CCC1(O)C#N	O[C@H]1C=CC[C@]1(O)C#N	
InChI=1S/C6H7NO2/c7-4-6(9)3-1-2-5(6)8/h1-2,5,8-9H,3H2	InChI=1S/C6H7NO2/c7-4-6(9)3-1-2-5(6)8/h1-2,5,8-9H,3H2/t5-,6-/m0/s1
