19
gdb 82401	2.40019	1.78627	1.21552	4.2435	74.65	-0.2608	0.0151	0.2759	1060.3195	0.160459	-423.061936	-423.053876	-423.052932	-423.094541	31.167	
C	-0.4069517616	 1.4101516758	 0.0081969562	-0.387737
C	 0.1286593566	-0.0246677057	-0.0043754961	-0.153957
C	 0.8738780144	-0.373245165	-1.2854351535	-0.022055
C	 2.3735066693	-0.1973604125	-1.3799159238	-0.303871
C	 1.7730305428	-1.5723175882	-1.2268114916	-0.054203
C	 1.8200502959	-2.2734821851	 0.1103957672	-0.098116
O	 1.8021101586	-1.3690858181	 1.2231722151	-0.230347
C	 0.9711464051	-0.2942195453	 1.2445216588	 0.411919
O	 0.9414005728	 0.3904965713	 2.2305958603	-0.326082
H	 0.4132085384	 2.1289527341	-0.0755319571	 0.128236
H	-1.0873661556	 1.5656986672	-0.8345530831	 0.106545
H	-0.9394859415	 1.6172701608	 0.937558023	 0.138921
H	-0.7274065635	-0.7149462697	 0.0709848857	 0.108383
H	 0.3011132015	-0.203406339	-2.1922516859	 0.091041
H	 2.7899891492	 0.0626780008	-2.346141404	 0.116985
H	 2.9036069779	 0.2325403108	-0.5365762036	 0.137766
H	 1.809403347	-2.2455595316	-2.0779519851	 0.095038
H	 0.9751567486	-2.9705169531	 0.2020144302	 0.113869
H	 2.7415403942	-2.8491280775	 0.2367222474	 0.127665
75.105	156.235	204.6686	248.3463	292.3442	306.9214	421.1973	453.8443	518.7397	548.39	646.9486	732.2114	761.4725	789.0561	837.5928	868.917	926.5073	973.3197	1010.995	1049.6961	1067.7659	1086.9477	1089.9095	1101.0651	1127.944	1140.7159	1159.5392	1191.1267	1215.0173	1282.4457	1316.3042	1324.4122	1374.153	1408.6812	1418.8631	1426.4855	1489.7321	1496.5776	1498.5436	1512.492	1839.7241	2979.2996	3008.4389	3047.7015	3083.3534	3115.2464	3137.2168	3142.5244	3147.2706	3158.2087	3223.2053
CC1C2CC2COC1=O	C[C@H]1[C@H]2C[C@H]2COC1=O	
InChI=1S/C7H10O2/c1-4-6-2-5(6)3-9-7(4)8/h4-6H,2-3H2,1H3	InChI=1S/C7H10O2/c1-4-6-2-5(6)3-9-7(4)8/h4-6H,2-3H2,1H3/t4-,5-,6+/m0/s1
