17
gdb 98084	3.34043	1.00094	0.83945	2.7788	66.77	-0.2677	-0.0838	0.1839	1379.7165	0.132266	-496.137917	-496.127665	-496.12672	-496.174268	34.928	
C	-0.118456582	 1.3156439363	-0.1575205683	-0.245142
O	-0.0345555429	-0.1183346401	-0.2083701011	-0.206211
C	 0.4676770276	-0.6198536871	-1.3334310173	 0.388075
O	 0.8469223923	 0.0222962368	-2.2820459118	-0.349747
C	 0.4963798804	-2.1590611036	-1.3036896495	 0.238573
O	-0.0838547846	-2.7882157505	-0.4519326727	-0.300949
C	 1.2653350443	-2.8522927777	-2.4183644526	 0.072084
C	 2.7726118833	-2.5536574078	-2.3156362102	-0.413496
O	 1.0242371153	-4.2342134295	-2.3646254984	-0.440096
H	 0.8735552221	 1.7588936935	-0.2734018659	 0.14861
H	-0.7678592049	 1.6862621006	-0.9541585852	 0.150091
H	-0.5349295857	 1.5506708824	 0.8208386564	 0.14757
H	 0.8970572825	-2.4434002877	-3.3710377911	 0.113335
H	 2.9759361309	-1.490550814	-2.4593068849	 0.140226
H	 3.1610339122	-2.8753529503	-1.3444149631	 0.12402
H	 3.2881651709	-3.1220545104	-3.0930835246	 0.139958
H	 0.5169050983	-4.3897712806	-1.5536535397	 0.293101
32.6125	73.362	114.8841	139.4792	157.3326	211.7827	242.7548	302.1409	342.8942	354.9329	369.809	430.6859	505.9553	551.7434	736.1907	807.3949	830.5865	919.9975	953.5529	1039.0761	1087.613	1088.1509	1176.3572	1176.9869	1210.3648	1272.3404	1319.8081	1340.1339	1393.971	1429.2774	1472.9728	1481.8846	1492.3015	1495.404	1497.189	1803.8034	1806.2631	3004.1543	3048.8371	3056.3856	3125.6951	3133.3251	3145.1925	3172.3008	3710.3826
COC(=O)C(=O)C(C)O	COC(=O)C(=O)[C@@H](C)O	
InChI=1S/C5H8O4/c1-3(6)4(7)5(8)9-2/h3,6H,1-2H3	InChI=1S/C5H8O4/c1-3(6)4(7)5(8)9-2/h3,6H,1-2H3/t3-/m1/s1
