16
gdb 6951	2.68967	2.34305	1.69538	2.9058	66.37	-0.2414	-0.0545	0.1868	823.1189	0.13001	-383.779091	-383.771511	-383.770567	-383.810756	28.848	
C	 0.0568776917	 1.5523473579	 0.0132582588	-0.430577
C	-0.0353816122	 0.0215974711	-0.0384030972	 0.307117
O	-1.3885766169	-0.4012844591	-0.0363914064	-0.475216
C	 0.7268708241	-0.5826682176	-1.2348927615	-0.310779
C	 1.9460589494	-1.2178156348	-0.6140365988	-0.048782
C	 1.9300613138	-1.2113743537	 0.7267944734	-0.179231
C	 0.6840900217	-0.5804458356	 1.1931755784	 0.341229
O	 0.2151652936	-0.5421194506	 2.3101226539	-0.360137
H	 1.0952646851	 1.8959917663	-0.0452796641	 0.115804
H	-0.5049570621	 1.9809867364	-0.8214575009	 0.12594
H	-0.3721678978	 1.9173173284	 0.9514827905	 0.128687
H	-1.6665367936	-0.3846736461	 0.8903532395	 0.286922
H	 0.1020295428	-1.3361839404	-1.727737746	 0.141791
H	 0.9952382338	 0.157845172	-1.9964674026	 0.115919
H	 2.736149652	-1.6473779813	-1.2215396016	 0.120004
H	 2.6690472544	-1.637596913	 1.3927629247	 0.121309
71.1646	209.4287	264.0804	289.8908	299.6919	354.9985	390.8987	439.9989	531.9626	610.5223	686.7136	710.1406	753.4715	836.4682	910.6465	920.8814	960.6401	979.3847	1000.9631	1088.0641	1103.3124	1129.6592	1152.0689	1217.751	1237.3606	1333.3492	1360.3817	1394.5332	1396.2776	1464.0689	1488.1241	1494.4531	1639.5057	1806.7976	3033.0545	3042.0352	3077.6739	3107.9314	3119.0826	3188.3856	3227.2157	3744.6326
CC1(O)CC=CC1=O	C[C@@]1(O)CC=CC1=O	
InChI=1S/C6H8O2/c1-6(8)4-2-3-5(6)7/h2-3,8H,4H2,1H3	InChI=1S/C6H8O2/c1-6(8)4-2-3-5(6)7/h2-3,8H,4H2,1H3/t6-/m1/s1
