20
gdb 37594	2.76193	2.29209	1.95864	1.5729	79.26	-0.2208	0.0883	0.3091	834.8609	0.177529	-366.016333	-366.010731	-366.009787	-366.045823	25.778	
C	 0.007999775	 1.5783964952	 0.0646373345	-0.230257
C	 1.4875767817	 1.8637042752	-0.0652361974	-0.031352
C	 2.4943833561	 0.8805701853	 0.4530544632	-0.049724
C	 2.0765286549	-0.4845809413	 1.0486155981	-0.038759
C	 0.582500772	-0.4441714172	 1.3950026315	-0.212351
C	 0.005633844	 0.0455598503	 0.0359189244	-0.043471
C	 1.1601288848	-0.3084980151	-0.9832426767	 0.000121
C	 2.0229063942	-1.342304284	-0.2437129639	-0.207871
N	 2.0867088626	 0.8766161973	-0.9866903421	-0.121457
H	-0.4512387965	 1.9834646919	 0.9716444497	 0.099305
H	-0.5126178847	 2.0126293118	-0.7977579826	 0.099385
H	 1.8084013078	 2.8919472032	-0.2170053129	 0.083053
H	 3.50186658	 1.2364934427	 0.6514468229	 0.085197
H	 2.7382817976	-0.8312198945	 1.843226879	 0.05915
H	 0.2237126052	-1.4415684731	 1.6690535122	 0.090286
H	 0.3383349782	 0.2395926992	 2.2132604479	 0.090773
H	-0.9614364351	-0.3900178309	-0.218374009	 0.065637
H	 0.83584186	-0.5471410621	-1.9962703123	 0.067207
H	 2.9925074662	-1.4814854442	-0.727181855	 0.105751
H	 1.5432202758	-2.3147573397	-0.0962081915	 0.089377
294.5732	423.3359	455.38	500.1977	564.6506	620.4471	720.7333	733.5064	765.3636	799.2032	825.6212	845.9202	870.8962	902.0083	913.2787	934.2036	951.0068	964.5318	984.8009	1008.2219	1019.0757	1048.9097	1078.8672	1087.5025	1100.7525	1131.0882	1152.7586	1180.2375	1203.0458	1209.9491	1238.1673	1258.7632	1282.1903	1289.3027	1302.333	1316.3547	1329.3629	1350.3839	1363.8483	1404.6574	1484.7204	1497.2756	1512.9478	3031.0869	3042.5491	3057.7479	3078.7376	3089.6116	3098.5915	3105.0823	3114.7848	3116.8303	3129.1052	3141.7598
C1C2C3C4CC1C(C4)N23	C1[C@H]2[C@H]3[C@H]4C[C@@H]1[C@H](C4)N23	
InChI=1S/C8H11N/c1-4-2-7-8-5(1)3-6(4)9(7)8/h4-8H,1-3H2	InChI=1S/C8H11N/c1-4-2-7-8-5(1)3-6(4)9(7)8/h4-8H,1-3H2/t4-,5-,6-,7-,8+,9?/m0/s1
