18
gdb 17788	6.02214	1.08467	1.06772	2.7137	69.01	-0.236	0.0807	0.3166	1163.0813	0.153097	-384.847433	-384.839663	-384.838719	-384.88035	28.376	
C	-0.0088876111	 1.3863196031	 0.1135805137	-0.223803
O	-0.0513713228	-0.0094836249	-0.0598096248	-0.231522
C	 0.7986775355	-0.461542596	-1.0945036053	-0.114715
C	 0.7154599233	-1.9737106047	-1.1249549159	 0.035182
C	-0.5055184055	-2.7454043148	-1.7002220302	 0.051766
C	-0.0853736618	-2.3915847203	-3.1467542822	-0.23211
C	 1.161949375	-2.8321256383	-2.3419784186	 0.023903
O	 0.3607069491	-3.9483209063	-1.7882464699	-0.31056
H	 1.0024134808	 1.7352605353	 0.3771435694	 0.104184
H	-0.3286044947	 1.9224537032	-0.7945065692	 0.102745
H	-0.6920319648	 1.6359685207	 0.9290161279	 0.128989
H	 0.5087192828	-0.0033381525	-2.0530542767	 0.086727
H	 1.8409325491	-0.1538835729	-0.8974068728	 0.088061
H	 1.0498035121	-2.4012713793	-0.1769913903	 0.092033
H	-1.500916921	-2.8726777163	-1.2759911273	 0.098467
H	-0.4119561271	-3.1087298678	-3.9002559952	 0.110312
H	-0.1648190784	-1.3581056585	-3.4886806942	 0.097744
H	 2.1686466697	-3.0639207597	-2.6921825085	 0.092595
59.0082	88.5573	138.529	228.5334	312.1296	363.9553	390.3081	556.5525	645.3365	726.7148	798.4265	842.6957	878.2152	906.6093	928.8784	989.8891	1007.406	1022.2994	1077.7854	1098.6072	1123.7799	1153.8051	1168.7023	1171.334	1185.7452	1201.8952	1212.5445	1232.0939	1253.9911	1266.5878	1287.9617	1368.4607	1434.4489	1480.381	1485.3715	1490.3987	1506.2541	1528.3351	2947.8441	2967.9948	2989.0656	3010.1812	3075.7476	3095.1501	3110.1246	3114.0378	3127.6274	3151.4424
COCC1C2CC1O2	COC[C@H]1[C@H]2C[C@@H]1O2	
InChI=1S/C6H10O2/c1-7-3-4-5-2-6(4)8-5/h4-6H,2-3H2,1H3	InChI=1S/C6H10O2/c1-7-3-4-5-2-6(4)8-5/h4-6H,2-3H2,1H3/t4-,5+,6-
