17
gdb 77866	2.19703	1.66702	1.52972	2.1042	73.33	-0.2499	0.0311	0.2811	979.2306	0.134929	-421.75362	-421.745242	-421.744298	-421.786123	32.661	
O	 0.133248074	 1.4087633024	 0.0617547354	-0.44219
C	 0.0147632932	 0.0067009575	-0.0060919414	 0.065002
C	-1.3690467673	-0.6458479029	 0.0241593746	-0.120572
C	-2.2190730536	-0.2190624782	-1.1579244593	-0.215096
C	-2.2540285201	 1.112000034	-1.7114760162	 0.299254
C	-2.3618366033	 2.2334999125	-2.1376479323	-0.437652
C	-1.1374970449	-1.2518202817	-1.3700743282	-0.09612
C	 0.2709236661	-0.6441806375	-1.418022939	 0.097178
O	 0.606308888	 0.232157545	-2.4536626804	-0.436047
H	-0.6670749024	 1.8024903174	-0.3111238266	 0.296358
H	 0.6839039622	-0.4017854927	 0.7542590221	 0.097386
H	-1.8357355438	-1.0890928413	 0.895709335	 0.097684
H	-3.2068760184	-0.6742055884	-1.1222230695	 0.125775
H	-2.4394452468	 3.2105638788	-2.5472173007	 0.205011
H	-1.4023910824	-2.241415165	-1.7223805759	 0.097393
H	 1.0222790097	-1.4405115244	-1.3514562285	 0.081294
H	 0.6489047698	 1.1112406946	-2.051855419	 0.285341
119.9454	147.6422	184.7814	222.4951	279.8874	281.848	435.1568	452.0428	521.5917	562.0938	593.8355	606.2412	661.1251	668.2885	771.4117	783.7989	811.5347	823.6032	920.6068	947.7632	997.9402	1009.6473	1044.6897	1074.3821	1116.3096	1160.9592	1177.188	1190.0006	1267.1336	1286.3424	1317.1887	1342.8671	1358.7139	1406.9267	1418.2398	1444.4043	2221.429	3026.7351	3088.7915	3130.0825	3180.0766	3191.544	3498.7691	3733.8153	3746.9567
OC1C2C(C#C)C2C1O	O[C@H]1[C@H]2[C@@H](C#C)[C@H]2[C@H]1O	
InChI=1S/C7H8O2/c1-2-3-4-5(3)7(9)6(4)8/h1,3-9H	InChI=1S/C7H8O2/c1-2-3-4-5(3)7(9)6(4)8/h1,3-9H/t3-,4+,5-,6+,7-
