15
gdb 21034	3.91161	1.81928	1.26134	1.8818	63.71	-0.23	0.0336	0.2636	938.5634	0.119609	-396.023521	-396.015516	-396.014571	-396.056208	28.052	
C	-0.0617678499	 1.4262614256	-0.0745668627	-0.329326
N	 0.0006563057	-0.0148741292	-0.0046380452	-0.019161
N	-0.0172235902	-0.7945169866	-1.1353850628	-0.316404
C	 0.0565306496	-2.0194517307	-0.6463243294	 0.352957
C	 0.0679746088	-3.2287178181	-1.5179972176	-0.479106
N	 0.1213335811	-2.0896759511	 0.7233582053	-0.415934
C	 0.0832066632	-0.8216612889	 1.0661064302	 0.445848
O	 0.1180870069	-0.3210063139	 2.3082778915	-0.426056
H	 0.7874250063	 1.8148067353	-0.6432334279	 0.149517
H	-0.9884550012	 1.7420658441	-0.561423002	 0.149467
H	-0.0313044546	 1.8228317139	 0.9408778394	 0.157493
H	 0.9823149105	-3.8103857753	-1.3626720158	 0.136174
H	-0.7766313023	-3.8844466676	-1.2831577293	 0.136181
H	 0.0081272464	-2.93355175	-2.566828011	 0.138571
H	 0.1763881595	-1.0766395677	 2.9064010875	 0.31978
67.9243	120.8691	155.6229	224.69	266.3605	297.0869	371.0512	405.1106	522.7985	626.3816	680.1769	691.4151	739.7876	850.269	1003.1657	1039.3849	1063.1837	1068.5253	1156.2394	1173.0683	1280.9828	1312.7287	1381.7873	1420.8097	1453.3476	1477.7049	1479.1015	1480.1721	1507.0122	1537.4206	1596.0519	1634.6896	3044.4721	3050.79	3099.284	3114.8762	3144.3531	3156.7411	3806.8658
CN1N=C(C)N=C1O	Cn1nc(C)nc1O	
InChI=1S/C4H7N3O/c1-3-5-4(8)7(2)6-3/h1-2H3,(H,5,6,8)	InChI=1S/C4H7N3O/c1-3-5-4(8)7(2)6-3/h1-2H3,(H,5,6,8)
