20
gdb 36797	8.01834	0.46615	0.45793	4.0882	81.03	-0.2729	0.0361	0.309	2298.0712	0.170028	-403.147596	-403.137736	-403.136791	-403.183977	34.341	
N	-0.1056720968	-1.1384219563	-0.1118703967	-0.304501
C	-0.0637510674	 0.0160839082	-0.1400622416	 0.256641
C	 0.0148122746	 1.4749508052	-0.1694920138	-0.34226
C	 1.4406397218	 1.9991925918	 0.093671223	-0.183721
C	 1.5043764578	 3.5282940028	 0.0616724402	-0.178672
C	 2.9174219884	 4.0715632984	 0.3136975263	-0.230249
C	 2.964097921	 5.5793233746	 0.2693106214	 0.097498
C	 4.0927583565	 6.3196441873	-0.3060781326	-0.180355
O	 2.86672451	 6.1786660014	-1.0268079207	-0.236433
H	-0.3423726384	 1.8228852465	-1.1458925657	 0.154336
H	-0.6807481291	 1.8745436315	 0.5780333025	 0.151581
H	 1.7843153811	 1.6271106595	 1.0656599419	 0.119847
H	 2.1189612802	 1.5788681148	-0.6574397491	 0.123021
H	 1.1555645302	 3.8956852064	-0.9113500625	 0.121001
H	 0.8157781351	 3.9391972447	 0.81289307	 0.098967
H	 3.2798104814	 3.7320020482	 1.2933561073	 0.104235
H	 3.6074562114	 3.6729421053	-0.4394281074	 0.107224
H	 2.3652460563	 6.086507271	 1.029352448	 0.091008
H	 4.3181264021	 7.3264457348	 0.0427814461	 0.116553
H	 4.9403902738	 5.7707417841	-0.7149336165	 0.11428
44.7033	64.1593	88.0489	120.8693	140.1334	173.9352	292.3313	307.2612	399.9671	434.897	474.0499	563.5607	736.5525	771.0885	806.1378	867.4364	913.6648	928.7156	956.9472	1016.1465	1032.1047	1059.4053	1065.5428	1107.9135	1137.8558	1160.3328	1169.0376	1199.7271	1250.4207	1279.446	1295.1914	1319.6919	1326.9377	1333.1827	1375.0509	1401.1527	1449.5759	1468.3039	1473.9113	1489.8848	1508.4094	1532.294	2362.49	3012.5279	3021.6199	3035.2047	3044.5358	3051.1305	3064.3564	3072.7421	3081.9009	3088.5315	3094.1633	3168.3503
N#CCCCCC1CO1	N#CCCCC[C@H]1CO1	
InChI=1S/C7H11NO/c8-5-3-1-2-4-7-6-9-7/h7H,1-4,6H2	InChI=1S/C7H11NO/c8-5-3-1-2-4-7-6-9-7/h7H,1-4,6H2/t7-/m0/s1
