23
gdb 102589	2.10615	1.14896	0.79355	3.4426	81.71	-0.2328	0.0687	0.3015	1494.4614	0.204701	-425.399673	-425.389246	-425.388301	-425.435705	37.393	
C	 0.0076501863	 1.5509581547	 0.1598946112	-0.393456
C	-0.0913205351	 0.0245024681	 0.0539433785	-0.184798
C	-1.5225425554	-0.533236505	-0.0829836104	-0.003609
C	-2.1614899696	-0.1035526815	-1.4054622851	-0.083184
O	-3.4859107885	-0.6177341737	-1.4612660463	-0.417119
C	-1.5219775666	-2.055583452	 0.0538452055	 0.002503
C	-1.0856263441	-2.6833153965	 1.3982262306	-0.098651
O	-2.2608619508	-3.5124214872	 1.4439604359	-0.279201
C	-2.844623647	-2.8074956459	 0.3243983923	-0.092251
H	 1.0412533975	 1.8601350206	 0.3441256421	 0.114831
H	-0.3234662346	 2.0536199378	-0.7538344515	 0.118337
H	-0.6039404149	 1.9290631789	 0.9866155351	 0.118335
H	 0.5138202876	-0.3271854768	-0.7932595595	 0.094534
H	 0.3636682454	-0.4167982518	 0.948734878	 0.104672
H	-2.1361197198	-0.1171906712	 0.729753237	 0.07779
H	-2.1695040592	 0.9930538955	-1.4835357327	 0.088305
H	-1.5528568709	-0.4885929792	-2.2415546168	 0.082975
H	-3.8779594052	-0.355875267	-2.2990104609	 0.288288
H	-0.9751894453	-2.4981483648	-0.7863658877	 0.071384
H	-0.1613681918	-3.2731264252	 1.4051465479	 0.098295
H	-1.0550356217	-1.9706585928	 2.237206646	 0.087897
H	-3.6730419586	-2.1606164309	 0.6342711132	 0.105318
H	-3.1987899977	-3.4902121641	-0.4545329525	 0.098805
67.9162	80.7614	115.4331	124.6729	152.8794	217.1996	223.7903	265.622	291.9212	350.3237	380.9868	459.4357	507.9105	719.615	774.99	867.4112	895.3273	911.4314	951.6474	973.1687	1001.7674	1026.5696	1031.3967	1048.5642	1067.1883	1103.2438	1129.8463	1145.7686	1157.0565	1168.9762	1198.5578	1247.2276	1264.868	1270.2077	1283.7825	1308.2624	1323.2049	1345.5486	1366.7654	1384.4957	1413.7048	1416.7633	1457.3739	1486.7921	1501.8564	1509.1414	1510.3657	1520.2115	1536.6761	2955.6855	2978.913	2997.0796	3010.4365	3016.5216	3033.9705	3035.2998	3036.3769	3051.2768	3054.3237	3082.5	3100.4889	3107.6211	3834.3725
CCC(CO)C1COC1	CC[C@@H](CO)C1COC1	
InChI=1S/C7H14O2/c1-2-6(3-8)7-4-9-5-7/h6-8H,2-5H2,1H3	InChI=1S/C7H14O2/c1-2-6(3-8)7-4-9-5-7/h6-8H,2-5H2,1H3/t6-/m0/s1
