17
gdb 97046	4.34584	1.07031	0.88611	0.7571	74.5	-0.2602	-0.0023	0.2579	1285.9775	0.136026	-455.149388	-455.140554	-455.139609	-455.184079	30.941	
C	-0.1388530296	 1.4684444151	 0.0534167721	-0.332459
N	-0.0573175355	 0.0181113592	 0.0043917367	-0.282592
C	 0.6251154446	-0.5481530791	-0.8908251583	 0.368981
C	 0.6011183384	-2.0520482033	-1.0057776595	-0.165164
O	 1.8078160792	-2.6452378745	-1.5060379898	-0.244228
C	 2.52207619	-1.9696743336	-2.4422895617	 0.363788
N	 3.2821107506	-2.5383067503	-3.2758736735	-0.499262
C	 2.5062686921	-0.4611959431	-2.3559366786	-0.15875
O	 1.2826975841	 0.1123888821	-1.8878187951	-0.253931
H	 0.62461388	 1.9806521075	-0.5415991196	 0.123483
H	-1.1256008215	 1.7852829673	-0.305178945	 0.133105
H	-0.0624784057	 1.7874877275	 1.0974014938	 0.128639
H	 0.4148424026	-2.4855144667	-0.0244695783	 0.154941
H	-0.2222184373	-2.3368621291	-1.67568367	 0.13729
H	 3.2423129885	-3.5530073717	-3.1582836689	 0.227333
H	 3.3205144437	-0.1508872023	-1.6862759186	 0.1405
H	 2.6979583257	-0.0456146448	-3.3442376656	 0.158326
48.8064	75.0507	102.2451	138.9417	233.9558	249.3491	390.146	400.9574	475.5404	533.8199	582.2867	602.1426	774.7561	786.4983	890.5841	916.6748	995.7011	999.8227	1027.241	1062.1065	1096.8126	1130.123	1152.6378	1173.7686	1245.7303	1259.1491	1267.635	1331.4946	1398.3506	1420.7337	1436.6693	1487.9003	1490.7213	1493.5437	1497.561	1759.7786	1782.3632	3013.885	3015.4462	3022.438	3082.2166	3101.3599	3146.4504	3148.8157	3466.3398
CN=C1COC(=N)CO1	CN=C1CO[C]([NH])CO1	
InChI=1S/C5H8N2O2/c1-7-5-3-8-4(6)2-9-5/h6H,2-3H2,1H3	InChI=1S/C5H8N2O2/c1-7-5-3-8-4(6)2-9-5/h6H,2-3H2,1H3
