21
gdb 118527	3.00083	0.88081	0.7633	2.8107	79.62	-0.2321	0.0203	0.2524	1523.74	0.180959	-420.392948	-420.382256	-420.381312	-420.429286	37.824	
C	 0.461897249	-1.2308977218	 1.6790958589	-0.402831
C	-0.0044322051	-0.2424107735	 0.5987805846	-0.156257
N	-1.3006130886	-0.5115981665	-0.0395187377	-0.076241
C	-1.4563573098	-1.8201581488	-0.679020892	-0.139794
C	-0.4593678867	-2.1085663844	-1.8051579003	-0.09461
O	 0.7969699878	-2.609294116	-1.3643423563	-0.410634
C	-2.4368753224	-0.2206623971	 0.8256067061	-0.284137
C	-2.4992560454	 1.1978613838	 1.2025038607	 0.275564
N	-2.5560433344	 2.3087058623	 1.5142544225	-0.310276
H	 1.3941104502	-0.8719723564	 2.1267815235	 0.121373
H	-0.269344833	-1.3291659329	 2.4879069685	 0.118969
H	 0.6489984622	-2.2212712957	 1.2568999666	 0.140883
H	-0.0625228508	 0.766414535	 1.0202507781	 0.13388
H	 0.7507464864	-0.1780724525	-0.1927308873	 0.084589
H	-1.4156942266	-2.6616860175	 0.0356106186	 0.098056
H	-2.4588729402	-1.8343096313	-1.1251065592	 0.102254
H	-0.8885477128	-2.8983751756	-2.431576403	 0.115473
H	-0.3451311996	-1.214273466	-2.4324112831	 0.108152
H	 1.386937011	-1.8684910091	-1.2063560494	 0.291302
H	-3.3587637498	-0.4588928872	 0.2832034226	 0.152044
H	-2.4648950812	-0.816930069	 1.7567115275	 0.132239
44.3134	80.3719	116.3922	138.2698	175.7439	228.0303	242.5296	250.8704	278.8144	327.4901	386.1169	405.7037	470.3365	500.1765	575.825	763.9863	791.2947	873.7815	909.5359	954.0928	981.6607	1005.3572	1058.5445	1072.3746	1090.6606	1102.8854	1179.8727	1205.2357	1218.3258	1269.8559	1325.0375	1347.0397	1377.9004	1386.8474	1399.8791	1405.3164	1412.5473	1428.812	1471.0356	1489.3499	1492.2731	1497.0136	1500.407	1516.6085	2364.3042	2935.2889	2948.6608	3015.8945	3035.7572	3041.3403	3041.9158	3060.3782	3073.721	3076.2413	3105.477	3128.3235	3856.0588
CCN(CCO)CC#N	CCN(CCO)CC#N	
InChI=1S/C6H12N2O/c1-2-8(4-3-7)5-6-9/h9H,2,4-6H2,1H3	InChI=1S/C6H12N2O/c1-2-8(4-3-7)5-6-9/h9H,2,4-6H2,1H3
