18
gdb 121078	3.91536	0.82885	0.71466	4.0938	68.58	-0.2639	0.0498	0.3137	1530.541	0.148615	-476.270041	-476.261124	-476.26018	-476.304584	31.995	
O	 0.1997791909	 1.3783240986	 0.2655838174	-0.41631
C	 0.091106609	-0.0173027427	 0.0411121915	-0.072355
C	-1.3636208624	-0.4981049943	 0.0697414742	-0.222912
C	-1.5000459467	-2.0010453735	-0.1019916012	 0.128033
C	-2.9443188851	-2.5419723963	-0.0458505469	-0.207258
N	-2.8538574077	-3.6088022558	-1.0231006686	-0.364846
C	-1.8300657354	-3.3787585151	-1.9199046055	 0.471114
O	-1.6262364618	-3.9240477495	-2.9673713011	-0.387653
O	-1.0297296976	-2.3933666357	-1.407609001	-0.254771
H	-0.131922718	 1.8305867387	-0.5163649225	 0.284486
H	 0.5637554016	-0.3172874843	-0.9039469193	 0.118942
H	 0.6539604719	-0.4945390836	 0.8514630821	 0.112908
H	-1.8148665461	-0.2066781159	 1.026130946	 0.113602
H	-1.9354144615	-0.0007471796	-0.7246564816	 0.100753
H	-0.8807412833	-2.5264984438	 0.6377657328	 0.098393
H	-3.2022175581	-2.9108777595	 0.9506252631	 0.124685
H	-3.6719215406	-1.7677083781	-0.3304604809	 0.110328
H	-3.668585039	-4.0849979196	-1.3745344885	 0.26286
67.8572	96.631	106.614	161.6027	199.9645	292.5814	332.3547	353.88	483.0784	513.3112	546.4788	662.3721	736.2202	772.8268	790.2547	888.0217	959.0142	989.2689	1000.3566	1075.5021	1083.2161	1096.9333	1108.5952	1116.2356	1185.7349	1217.9853	1236.7553	1282.0795	1318.4072	1341.2469	1385.5281	1394.8122	1414.7301	1423.9395	1439.1002	1473.404	1513.2304	1531.1304	1895.2275	2993.5273	3012.0137	3015.5749	3026.9188	3059.34	3080.614	3084.9471	3654.8665	3820.3383
OCCC1CNC(=O)O1	OCC[C@H]1CNC(=O)O1	
InChI=1S/C5H9NO3/c7-2-1-4-3-6-5(8)9-4/h4,7H,1-3H2,(H,6,8)	InChI=1S/C5H9NO3/c7-2-1-4-3-6-5(8)9-4/h4,7H,1-3H2,(H,6,8)/t4-/m0/s1
