18
gdb 96608	2.3311	1.33072	1.02061	3.0955	82.61	-0.2498	-0.0478	0.2019	1238.6267	0.146012	-398.115609	-398.105964	-398.10502	-398.150414	34.103	
C	 0.4313081927	 1.1373337435	-0.2426961395	-0.344061
N	 0.1688179185	-0.2674399561	-0.0139073195	-0.261652
C	 0.45503216	-0.81772507	 1.0954629069	 0.24154
C	 1.1159809612	-0.1383184773	 2.2045542633	 0.266893
N	 1.664933185	 0.4141091208	 3.0596453668	-0.342543
N	 0.0886761234	-2.1225265512	 1.4114460785	-0.107625
C	 0.0271866753	-3.1453135354	 0.3841723555	-0.244019
C	 1.0465874689	-3.2369714376	 1.4768966935	 0.008073
C	 2.5141908641	-3.0271062138	 1.1905174792	-0.419747
H	 1.0446556137	 1.23826285	-1.1449572143	 0.136744
H	-0.517624597	 1.6454851325	-0.4498217412	 0.140535
H	 0.9328014009	 1.6540771028	 0.5861877836	 0.134121
H	-0.8591491717	-3.7725221403	 0.4048583052	 0.129104
H	 0.3701432557	-2.8583734434	-0.6062373314	 0.139433
H	 0.8342250001	-3.9134987746	 2.3020963423	 0.109631
H	 2.6636616791	-2.3535510117	 0.3416528757	 0.133697
H	 3.0313788456	-2.6069096354	 2.0585724257	 0.147363
H	 2.9853019146	-3.9855565628	 0.9503181197	 0.132515
60.94	108.4824	136.8179	151.2709	184.9473	231.3604	246.3061	314.1875	351.4512	397.1896	465.98	537.6364	571.4943	700.3157	739.9804	810.0367	882.0253	906.7899	1014.3532	1038.6457	1067.8409	1126.3134	1130.6056	1138.1385	1152.0523	1166.1708	1191.2072	1211.6963	1382.1364	1401.1643	1425.9588	1441.3319	1482.6737	1486.9165	1498.7532	1500.1459	1507.6745	1700.528	2341.4123	3006.4618	3040.801	3077.7212	3083.0971	3108.5652	3113.3014	3116.4674	3136.8013	3205.563
CN=C(C#N)N1CC1C	CN=C(C#N)N1C[C@H]1C	
InChI=1S/C6H9N3/c1-5-4-9(5)6(3-7)8-2/h5H,4H2,1-2H3	InChI=1S/C6H9N3/c1-5-4-9(5)6(3-7)8-2/h5H,4H2,1-2H3/t5-,9?/m1/s1
