14
gdb 27135	3.49332	1.192	0.91133	2.5914	67.43	-0.2028	0.0097	0.2125	1195.297	0.101544	-470.025613	-470.017383	-470.016439	-470.059784	29.28	
O	 0.4626754484	 1.0899821649	-0.6654615134	-0.444373
C	 0.17956164	-0.1838267139	-0.3032488072	 0.244827
C	-0.2697829184	-1.1902053965	-1.1187145719	 0.275695
N	-0.3934765339	-2.2949920722	-0.2968659018	-0.306939
C	-0.0258822878	-1.9055461045	 0.9512784067	 0.010503
N	 0.3351869884	-0.637411114	 0.9737929302	-0.330524
O	-0.6333627296	-1.2782112359	-2.4272413551	-0.216499
C	 0.2347304057	-0.7674507646	-3.3522900582	 0.114807
N	-0.1029264999	-0.7705626799	-4.5629050688	-0.43038
H	 0.7355520795	 1.5461372246	 0.1397494427	 0.304618
H	-0.7279065335	-3.1973533127	-0.5919320052	 0.279098
H	-0.0440538554	-2.5725132382	 1.7985511666	 0.140074
H	 1.161089963	-0.3965817763	-2.9032197099	 0.120806
H	 0.6382106835	-0.3669635406	-5.131931305	 0.238287
28.277	89.6796	134.4513	270.2745	308.2177	321.6684	400.9865	434.0875	486.1442	532.0404	656.2547	713.0704	717.1602	769.5209	819.287	827.5594	952.2346	1035.1715	1040.5921	1104.8802	1127.6782	1237.0168	1270.4241	1306.6035	1357.348	1402.9113	1405.6508	1499.4842	1520.3615	1707.8478	1749.7041	3083.8662	3265.381	3524.2461	3665.7635	3806.7433
OC1=C(NC=N1)OC=N	Oc1c([nH]cn1)O[CH][NH]	
InChI=1S/C4H5N3O2/c5-1-9-4-3(8)6-2-7-4/h1-2,5,8H,(H,6,7)	InChI=1S/C4H5N3O2/c5-1-9-4-3(8)6-2-7-4/h1-2,5,8H,(H,6,7)
