19
gdb 107189	3.47865	1.22808	1.14227	1.8417	75.17	-0.2015	0.0707	0.2722	1144.8841	0.157622	-422.925182	-422.916578	-422.915634	-422.958227	33.221	
C	-0.0142464534	 1.384117433	 0.0574236855	-0.252091
O	 0.0940919998	-0.0289354533	 0.0169859023	-0.27363
C	 0.7313639199	-0.5287512775	-1.0972067912	 0.427962
C	 1.7003588922	-1.6538500655	-0.9572209875	-0.349817
C	 2.1538096011	-0.3520570612	-1.6049719996	-0.160242
C	 1.61544506	-0.1162947256	-3.0423657022	-0.091682
C	 0.7364755553	-1.1652372591	-3.6353965153	 0.098469
O	 1.017397876	-2.5366050845	-3.6086247894	-0.415845
C	 0.1660306289	-0.3083575161	-2.5338075779	-0.223817
H	 0.9723779858	 1.8619195813	-0.0129761976	 0.110802
H	-0.6496238584	 1.774614383	-0.7490902965	 0.111108
H	-0.4706553987	 1.6377310395	 1.0168092881	 0.127843
H	 2.0611872737	-1.741806506	 0.0641964538	 0.111324
H	 1.6277021275	-2.5783119654	-1.5103130261	 0.133457
H	 2.9764537515	 0.2233784379	-1.2023130494	 0.091928
H	 2.0023315007	 0.6932408947	-3.6503717671	 0.089042
H	 0.3442970746	-0.8385174059	-4.6035761586	 0.091048
H	 0.1752048411	-3.0050856393	-3.59615193	 0.285905
H	-0.6951380278	 0.3251130998	-2.7113895614	 0.088237
95.732	123.775	162.1486	215.8673	260.9239	299.6376	364.5768	418.8106	469.842	548.4915	569.4116	658.3798	685.9861	722.126	819.3862	832.6486	907.5068	932.2371	954.8273	970.1999	982.6169	1015.3502	1030.6622	1075.172	1091.0425	1100.8736	1120.1228	1177.0473	1181.6368	1221.3985	1226.4587	1260.4558	1282.5398	1302.7464	1339.1473	1384.4179	1460.4453	1472.5972	1486.5451	1497.2637	1506.1114	2997.4918	3050.6203	3051.6943	3121.3275	3136.2424	3170.1305	3179.7115	3203.2674	3252.2674	3798.0442
COC12CC1C1C(O)C21	CO[C@]12C[C@H]1[C@H]1[C@@H](O)[C@@H]21	
InChI=1S/C7H10O2/c1-9-7-2-3(7)4-5(7)6(4)8/h3-6,8H,2H2,1H3	InChI=1S/C7H10O2/c1-9-7-2-3(7)4-5(7)6(4)8/h3-6,8H,2H2,1H3/t3-,4+,5-,6+,7+/m0/s1
