17
gdb 34459	3.53325	1.49728	1.25194	5.2451	76.08	-0.2588	0.0166	0.2753	1007.1745	0.138919	-380.856934	-380.850007	-380.849063	-380.888141	27.655	
N	 0.0549483999	-1.0608587488	-0.0220585424	-0.340645
C	 0.0328673138	 0.0951194267	-0.0218028626	 0.20704
C	-0.0136394939	 1.5338036596	 0.0338702661	 0.205308
C	-1.2255299723	 2.1944823915	 0.6993824683	-0.311487
C	-1.4182044888	 3.474401541	-0.1497523127	-0.209881
C	-0.0588805115	 3.6472944987	-0.8132467884	 0.006046
C	 1.1058160181	 3.7569874708	 0.2099199807	-0.267067
C	 1.2941805773	 2.2658822381	-0.0126710281	-0.056102
N	 0.3985756633	 2.2397755109	-1.2188029226	-0.166985
H	-2.0944769454	 1.5349674811	 0.6627874051	 0.133144
H	-1.0249274746	 2.4153588115	 1.7514334144	 0.123609
H	-2.1883942742	 3.3181621459	-0.9112050381	 0.122149
H	-1.7034106205	 4.3443401533	 0.4486341836	 0.11268
H	-0.0371687293	 4.3380923748	-1.6549591054	 0.094471
H	 1.9513447147	 4.3222856743	-0.186292776	 0.125596
H	 0.8784362923	 4.1125722152	 1.2196791851	 0.108073
H	 2.2325499112	 1.7206376253	 0.0091754029	 0.11405
141.7637	166.0028	230.4823	355.1406	389.6891	493.9791	545.3854	563.8644	615.9776	712.2743	755.9449	823.0995	844.0234	865.378	895.4071	908.5688	957.0111	990.0434	1014.7564	1027.8191	1057.4264	1100.6636	1135.0836	1167.5781	1170.6797	1239.8349	1251.2084	1266.4245	1272.3702	1299.8687	1335.4448	1351.5152	1386.8614	1483.5203	1488.6368	1509.5218	2358.4783	3052.6796	3055.8937	3067.5975	3100.9982	3115.4638	3120.3333	3128.2005	3165.4503
N#CC12CCC3CC1N23	N#C[C@@]12CC[C@H]3C[C@@H]1N23	
InChI=1S/C7H8N2/c8-4-7-2-1-5-3-6(7)9(5)7/h5-6H,1-3H2	InChI=1S/C7H8N2/c8-4-7-2-1-5-3-6(7)9(5)7/h5-6H,1-3H2/t5-,6-,7-,9?/m0/s1
