25
gdb 105876	1.91395	1.3858	1.22616	0.2231	92.89	-0.238	0.0777	0.3158	1280.8094	0.228228	-352.339936	-352.329726	-352.328782	-352.374598	39.06	
C	-1.1105153915	 1.2801359214	-0.4287201187	-0.374086
C	-0.3383415337	-0.0237632573	-0.1783690976	-0.28863
C	 0.617256958	-0.3847543732	-1.288112872	 0.338852
C	 0.1536882967	-1.1498157543	-2.5087969283	-0.038369
C	 0.3038098351	-0.7926992292	-3.9752976628	-0.423766
C	 1.2212653848	-1.7591826909	-1.6389892732	-0.144013
C	 2.5911178141	-1.1188513156	-1.8959465681	-0.261655
C	 2.0102828155	 0.2655828168	-1.452402955	-0.011257
C	 2.2212330646	 1.5125433577	-2.3082737976	-0.422737
H	-0.4312249956	 2.1333380568	-0.5257417665	 0.118556
H	-1.6975491526	 1.2178838326	-1.3510128134	 0.115826
H	-1.7982885169	 1.4965378017	 0.3951459018	 0.108012
H	 0.2162553526	 0.0594704206	 0.766780851	 0.089426
H	-1.0532986921	-0.8452129814	-0.039900454	 0.092136
H	-0.8160096794	-1.6040269927	-2.3033761316	 0.077474
H	 1.3228997508	-0.5059346532	-4.2409879295	 0.121704
H	 0.0377577657	-1.6536012799	-4.5994784869	 0.111074
H	-0.3579856696	 0.0346153905	-4.2551132956	 0.114003
H	 1.0707614603	-2.7063899294	-1.1321543553	 0.07627
H	 3.3749000107	-1.4817415462	-1.2274677864	 0.097247
H	 2.966722489	-1.1847652036	-2.9227859624	 0.092431
H	 2.3882847874	 0.4794279249	-0.4452424144	 0.069387
H	 1.8572654303	 1.3881580539	-3.3306549701	 0.117804
H	 1.7037380164	 2.3769538261	-1.8777274381	 0.114423
H	 3.2869868795	 1.7638166841	-2.3628389753	 0.109888
68.9136	127.7914	157.0476	177.4275	209.8568	230.6745	240.1543	289.7372	325.2991	339.8163	379.6231	495.1356	548.7621	654.5428	671.5565	760.4791	776.1042	828.2976	863.6903	883.8525	948.5237	955.743	980.4568	991.8454	1028.3709	1061.1117	1074.6798	1100.705	1102.5811	1120.1963	1128.4044	1171.8441	1179.882	1235.3078	1238.7421	1257.0313	1287.3313	1321.6023	1352.182	1363.7071	1378.0618	1404.0302	1408.962	1412.9685	1462.7158	1481.7166	1486.4734	1495.0813	1498.7469	1500.5457	1505.4231	1508.0811	1509.2786	3004.7561	3021.0644	3030.3181	3031.7697	3033.4688	3039.9924	3042.7065	3083.0267	3087.0379	3100.1242	3100.8485	3101.395	3103.6456	3121.9501	3133.8316	3163.2737
CCC12C(C)C1CC2C	CC[C@]12[C@@H](C)[C@H]1C[C@H]2C	
InChI=1S/C9H16/c1-4-9-6(2)5-8(9)7(9)3/h6-8H,4-5H2,1-3H3	InChI=1S/C9H16/c1-4-9-6(2)5-8(9)7(9)3/h6-8H,4-5H2,1-3H3/t6-,7+,8-,9+/m1/s1
