19
gdb 69161	2.12207	1.76739	1.40016	1.9435	77.22	-0.2442	0.0031	0.2473	1043.045	0.157171	-419.174412	-419.165027	-419.164082	-419.207849	35.474	
C	 0.0313909913	 1.528928151	 0.0418775569	-0.488353
C	-0.0355931319	 0.0357420464	-0.0275551425	 0.29835
C	-0.8415304801	-0.8123830887	 0.8592995229	-0.296561
N	 0.6438584769	-0.8666064988	 1.0406438407	-0.214116
C	 1.1323550312	-1.6767939897	-0.0516535702	 0.316507
N	 1.9405914708	-2.6387071141	-0.0935521719	-0.549014
C	 0.5616219126	-0.8113482375	-1.1769489524	 0.283496
C	-0.3585671312	-1.4230092073	-2.2220517981	-0.44736
O	 1.6095027509	-0.0812670943	-1.8004666785	-0.469617
H	 0.995116976	 1.8818399914	-0.3308869995	 0.150025
H	-0.7588375111	 1.9783491429	-0.5704716264	 0.126444
H	-0.1004956154	 1.8711937758	 1.0720966511	 0.129432
H	-1.3320632527	-0.3328723615	 1.7009066288	 0.13327
H	-1.3510988393	-1.6997368203	 0.4934787707	 0.126223
H	 2.2397265089	-2.9027002453	 0.8492446095	 0.228859
H	-1.2249688524	-1.9191542744	-1.7766833069	 0.115809
H	-0.7096013558	-0.6438860839	-2.9051118789	 0.127857
H	 0.1928299738	-2.1684556081	-2.8037749826	 0.13239
H	 2.3233856174	-0.7053385336	-1.9755283029	 0.296359
102.1036	166.4282	177.2511	194.3783	237.5033	241.3115	282.3866	288.7952	376.953	405.6447	479.7059	511.4236	616.7844	657.8335	675.4159	733.4237	789.3146	876.8236	921.966	937.2281	967.273	987.3236	1018.8025	1077.7133	1103.1798	1124.6532	1140.1903	1167.0789	1208.4797	1258.1397	1327.1424	1353.1057	1383.0502	1404.6119	1420.414	1476.9497	1484.4707	1486.8055	1498.2445	1511.1319	1804.2473	3038.6819	3040.8496	3104.9772	3112.4504	3114.6634	3121.3382	3137.2694	3201.7443	3440.5687	3801.935
CC12CN1C(=N)C2(C)O	C[C@]12CN1[C]([NH])[C@]2(C)O	
InChI=1S/C6H10N2O/c1-5-3-8(5)4(7)6(5,2)9/h7,9H,3H2,1-2H3	InChI=1S/C6H10N2O/c1-5-3-8(5)4(7)6(5,2)9/h7,9H,3H2,1-2H3/t5-,6+,8?/m1/s1
