20
gdb 61520	3.28978	0.89088	0.8572	5.3574	79.53	-0.2541	0.0413	0.2953	1433.4494	0.168741	-403.151001	-403.14088	-403.139936	-403.18645	36.893	
C	-0.1011812286	 1.6488387822	-0.2269390797	-0.394159
C	-0.0142971824	 0.1157843246	-0.1020863628	-0.137679
C	-1.3882793824	-0.5793883029	 0.0740848965	-0.233613
C	-2.0967758673	-0.1875174793	 1.3523809071	 0.422681
O	-1.2309211042	-0.3966591161	 2.4414261644	-0.471341
C	-3.076475358	 0.9575903788	 1.3830400471	-0.323716
C	-3.5649115385	-0.4786854615	 1.4980936334	-0.339376
C	 0.6739107048	-0.4518685738	-1.2657731548	 0.261353
N	 1.204428888	-0.8959210938	-2.1919936188	-0.328342
H	 0.8919569455	 2.0814145098	-0.3706649957	 0.135186
H	-0.7239984948	 1.9381278224	-1.0787568773	 0.128457
H	-0.5343488888	 2.0701013947	 0.6820957651	 0.135923
H	 0.5868288434	-0.126470793	 0.7811328486	 0.147664
H	-2.0301388028	-0.3534446293	-0.7833185046	 0.114431
H	-1.2285026467	-1.6631314129	 0.0802659859	 0.127794
H	-1.6686979541	-0.1186502086	 3.251481557	 0.28562
H	-3.1071624156	 1.572519682	 2.2779012376	 0.110829
H	-3.2825855669	 1.5033920869	 0.4687161992	 0.122415
H	-4.1016117305	-0.9140309215	 0.6616448485	 0.122811
H	-3.91232628	-0.8159280488	 2.4697235133	 0.113062
44.1059	99.201	126.4056	154.8311	187.0534	235.4305	277.6641	290.3521	325.153	379.2048	425.6849	497.2901	546.6324	571.6063	744.8387	769.0145	802.804	875.903	903.6604	918.0593	937.9334	962.5373	984.8246	1052.222	1066.6126	1069.7949	1104.1239	1136.1325	1174.6833	1186.0688	1221.345	1299.7735	1321.8121	1355.9885	1368.0164	1410.1206	1435.2108	1461.0737	1477.3914	1496.0726	1499.6611	1503.9709	2354.7597	3045.744	3049.9526	3061.0809	3093.8018	3121.8159	3122.7462	3127.0485	3140.2361	3202.2519	3216.9905	3832.1375
CC(CC1(O)CC1)C#N	C[C@@H](CC1(O)CC1)C#N	
InChI=1S/C7H11NO/c1-6(5-8)4-7(9)2-3-7/h6,9H,2-4H2,1H3	InChI=1S/C7H11NO/c1-6(5-8)4-7(9)2-3-7/h6,9H,2-4H2,1H3/t6-/m0/s1
