17
gdb 43127	2.41439	1.87655	1.42045	4.6941	71.49	-0.2269	-0.0808	0.1461	956.5976	0.138239	-421.872065	-421.864934	-421.86399	-421.903706	27.973	
O	-0.0063660654	-0.0157539668	-0.0287320516	-0.297013
C	-0.042510617	 1.1831513743	-0.0102741066	 0.332663
C	-1.2404040856	 2.1247306095	 0.0411282144	-0.127449
C	-1.2449836764	 2.7463030701	 1.468219515	-0.227737
C	-0.0145888369	 3.7083811726	 1.4564205172	-0.227729
C	 0.5706062084	 3.5405728176	 0.0238396458	-0.127447
C	-0.7113584003	 3.3038393639	-0.8136209237	-0.257752
C	 1.1947154237	 2.1504062812	-0.0219098294	 0.332678
O	 2.3491814647	 1.8258113102	-0.0513960552	-0.297013
H	-2.1752818783	 1.6539779297	-0.2595040382	 0.092413
H	-2.1776709524	 3.2944640542	 1.6247834277	 0.115441
H	-1.1800705241	 1.9847400288	 2.2492038073	 0.124194
H	-0.3198500456	 4.7471821334	 1.6067898816	 0.115431
H	 0.7180311731	 3.4690740165	 2.2310977307	 0.124185
H	 1.24941204	 4.3313316994	-0.2922440211	 0.092414
H	-0.5069130112	 3.0296266866	-1.8532352645	 0.118311
H	-1.3849368368	 4.1655367789	-0.8037402793	 0.114408
91.8292	189.0597	210.2291	302.2888	396.5266	448.568	505.9797	551.5238	665.8636	698.2843	739.876	817.8077	848.436	881.5031	891.5135	905.6745	934.2769	947.6765	988.2915	1029.7538	1059.676	1079.2503	1146.7371	1162.0724	1201.6462	1209.2422	1237.662	1284.8531	1300.5907	1301.0388	1332.9513	1333.6342	1490.7707	1495.5964	1515.3778	1848.7142	1874.4682	3052.4129	3059.3946	3068.2911	3097.6251	3102.3536	3116.5703	3131.34	3132.5049
O=C1C2CCC(C2)C1=O	O=C1[C@H]2CC[C@H](C2)C1=O	
InChI=1S/C7H8O2/c8-6-4-1-2-5(3-4)7(6)9/h4-5H,1-3H2	InChI=1S/C7H8O2/c8-6-4-1-2-5(3-4)7(6)9/h4-5H,1-3H2/t4-,5+
