21
gdb 107460	2.07775	1.6968	1.29215	2.4515	78.12	-0.241	0.0611	0.3021	1098.7124	0.181503	-424.194533	-424.185271	-424.184327	-424.227965	36.285	
C	-0.0785268104	 1.5660552664	 0.1104149303	-0.455466
C	 0.0575814362	 0.0496528121	 0.0844662814	 0.336283
O	-1.2353475846	-0.5568730699	-0.0168720706	-0.488481
C	 1.0933231711	-0.5948316339	-0.9043121	-0.281001
C	 1.7768803277	-1.2773927968	 0.2868728986	-0.111296
C	 2.2226227904	-0.2485033634	 1.290165863	-0.344629
C	 0.773914542	-0.6481061997	 1.2580493447	 0.338489
C	-0.0102017197	-1.2436459293	 2.4040388663	-0.186025
O	-0.9872405957	-0.3315383037	 2.8910820174	-0.424732
H	 0.8931218393	 2.0589202801	 0.1950498994	 0.122381
H	-0.5461178784	 1.9268470671	-0.8152575303	 0.101656
H	-0.6950568815	 1.8745149029	 0.9592867676	 0.132604
H	-1.6915216917	-0.162564265	-0.7681763017	 0.278802
H	 0.5869555639	-1.297077197	-1.5699384323	 0.104279
H	 1.7131719264	 0.0878814191	-1.496694475	 0.088193
H	 2.1741538871	-2.285386618	 0.2875819721	 0.085879
H	 2.7751119675	-0.6378700682	 2.1403397474	 0.113065
H	 2.5560727423	 0.7349853309	 0.9667696773	 0.102573
H	-0.4868775597	-2.1808102684	 2.0828808093	 0.0969
H	 0.6500857504	-1.4803603475	 3.2450455522	 0.102573
H	-1.6239628127	-0.2418943576	 2.171159713	 0.287953
82.5929	125.3531	199.4545	238.1865	245.4816	305.6086	324.2134	359.7715	431.2348	433.2734	450.9191	485.4402	523.8889	636.1097	695.5301	825.8942	841.8354	856.1531	891.0056	936.2194	962.6844	975.8377	997.9448	1024.6294	1041.2017	1067.0209	1091.9723	1093.8623	1143.1742	1172.9593	1208.373	1224.1257	1254.1789	1264.1078	1274.2511	1360.7072	1396.2663	1398.3297	1412.1584	1438.154	1472.1464	1484.2992	1496.6138	1498.5566	1508.5331	2997.0777	3021.7052	3035.7614	3069.1605	3096.115	3105.773	3110.9063	3126.9036	3178.5793	3192.5307	3780.9653	3804.7911
CC1(O)CC2CC12CO	C[C@@]1(O)C[C@H]2C[C@@]12CO	
InChI=1S/C7H12O2/c1-6(9)2-5-3-7(5,6)4-8/h5,8-9H,2-4H2,1H3	InChI=1S/C7H12O2/c1-6(9)2-5-3-7(5,6)4-8/h5,8-9H,2-4H2,1H3/t5-,6+,7-/m0/s1
