20
gdb 82931	2.19028	1.79872	1.53552	3.5309	77.69	-0.216	0.0637	0.2797	1006.3467	0.172777	-403.118212	-403.110465	-403.10952	-403.149907	31.757	
C	-0.0210025308	 1.526684295	-0.0031378615	-0.490579
C	 0.037268905	 0.0166470324	 0.0328249379	 0.280267
C	-0.8527882816	-0.7689237561	 0.9848071927	 0.083683
O	-1.6018579321	-1.8847667632	 0.6536646258	-0.435096
C	 0.6437017033	-0.7730468885	 1.2083852432	-0.152559
C	 1.4848832868	-1.9262750741	 0.647662535	-0.248235
C	 1.4040632994	-1.8186985315	-0.874537542	-0.029713
N	 0.0589513327	-2.0728410472	-1.4345597578	-0.365744
C	 0.527121118	-0.6722762752	-1.226502061	-0.103872
H	 0.9420186059	 1.9624843444	-0.2982993004	 0.111362
H	-0.7800552627	 1.8834906024	-0.7096184687	 0.119207
H	-0.2741514523	 1.9298273543	 0.9820242749	 0.119177
H	-1.403264479	-0.1459894292	 1.6877215507	 0.089411
H	-1.2112040196	-2.2404248869	-0.1697604947	 0.303096
H	 1.0281883547	-0.2555556829	 2.082809282	 0.076723
H	 2.5269114304	-1.814722454	 0.9630971365	 0.104652
H	 1.1375954719	-2.9051554147	 0.9977408256	 0.12041
H	 2.2577958465	-2.1066203068	-1.4795979387	 0.091948
H	 0.124989335	-2.3234229121	-2.416798396	 0.237063
H	 0.6956994883	-0.0650811563	-2.1097463634	 0.088798
149.5011	195.645	231.5819	273.2957	297.3085	333.139	426.5274	533.9972	562.9957	639.1995	682.2023	708.2204	724.2362	794.0534	817.9369	832.0562	863.5439	909.8585	934.316	951.0978	973.448	1026.4993	1065.539	1084.2465	1095.5986	1122.6029	1124.7708	1146.0431	1185.1056	1214.6086	1223.2566	1255.1184	1286.1203	1319.9484	1347.0253	1362.322	1390.1878	1416.9014	1445.2618	1477.6219	1490.3081	1498.7934	1522.5314	3015.0611	3042.38	3071.4777	3084.5329	3098.7191	3118.274	3143.6808	3158.5156	3169.8562	3490.2445	3513.0401
CC12C(O)C1CC1NC21	C[C@]12[C@@H](O)[C@H]1C[C@H]1N[C@@H]21	
InChI=1S/C7H11NO/c1-7-3(6(7)9)2-4-5(7)8-4/h3-6,8-9H,2H2,1H3	InChI=1S/C7H11NO/c1-7-3(6(7)9)2-4-5(7)8-4/h3-6,8-9H,2H2,1H3/t3-,4-,5-,6+,7+/m1/s1
