20
gdb 66687	2.45798	2.01398	1.57638	1.7245	81.51	-0.22	0.0861	0.3061	964.2437	0.171443	-365.9458	-365.938066	-365.937122	-365.977425	31.241	
C	-0.0613988627	 1.4453989233	 0.0676836944	-0.518135
C	 0.0598749069	-0.0373879359	-0.0798397906	 0.309991
C	-0.5234717531	-0.9347238981	-1.1988005	-0.121791
C	 0.6770669294	-1.6338084829	-1.8846035044	-0.25678
C	 0.9892356392	-2.1593062848	-0.4609672072	-0.121792
C	-0.5153154484	-2.0137576105	-0.0705812275	 0.028175
N	-0.2404526664	-1.0026121745	 1.0441044432	-0.262245
C	 1.1471696831	-0.9175827883	 0.4504915436	 0.309981
C	 2.3460297244	-0.5034636709	 1.241925387	-0.518135
H	 0.4580445911	 1.9644075799	-0.7465323567	 0.119185
H	-1.1117275922	 1.7560457008	 0.0510151796	 0.125405
H	 0.3682093806	 1.782499986	 1.0154240512	 0.129266
H	-1.4092566864	-0.5981180284	-1.735324628	 0.068518
H	 0.351641279	-2.4381556694	-2.5523885426	 0.098702
H	 1.4253662616	-1.0123569178	-2.3873435481	 0.092081
H	 1.6034898343	-3.0370265217	-0.2658373465	 0.068518
H	-1.2351148244	-2.8170526323	 0.0719255378	 0.075197
H	 2.12163831	 0.362807817	 1.8709202464	 0.129272
H	 2.6796700699	-1.313122397	 1.9000335982	 0.125402
H	 3.1800384143	-0.2388955645	 0.58118924	 0.119185
173.5282	173.7545	220.1615	225.6135	259.5622	342.2237	431.2296	533.817	624.4762	638.1698	733.3136	735.0984	793.1373	830.617	846.3644	861.3688	898.5657	908.6403	951.9431	965.425	996.8838	1020.4383	1033.5028	1078.2227	1110.1072	1111.1272	1148.8696	1186.5883	1187.0464	1197.1582	1227.357	1242.4811	1258.5114	1273.3353	1347.3399	1410.5384	1412.6244	1446.3703	1476.0726	1484.7506	1487.0742	1490.8939	1502.6232	3026.4351	3028.658	3038.9782	3087.2524	3088.1581	3096.2248	3108.6866	3113.5652	3123.4108	3126.7	3139.721
CC12C3CC4C3N1C24C	C[C@]12[C@H]3C[C@@H]4[C@H]3N1[C@]24C	
InChI=1S/C8H11N/c1-7-4-3-5-6(4)9(7)8(5,7)2/h4-6H,3H2,1-2H3	InChI=1S/C8H11N/c1-7-4-3-5-6(4)9(7)8(5,7)2/h4-6H,3H2,1-2H3/t4-,5+,6-,7+,8-,9?
