18
gdb 30350	3.09603	1.54793	1.09141	3.25	78.76	-0.2076	0.0367	0.2443	1098.2204	0.150076	-401.982622	-401.974857	-401.973913	-402.015051	30.012	
C	 0.0831320509	 1.5751627989	-0.1002250923	-0.383395
C	-0.0198245994	 0.0614359234	 0.0620726695	 0.009628
O	 0.5816435087	-0.5715262448	-1.0889570711	-0.296592
C	 1.4511639106	-1.6544258602	-0.7288004518	-0.197879
C	 1.6023063217	-1.5337377388	 0.7542532623	 0.22244
C	 2.2687170502	-2.0551139694	 1.8337363498	-0.241308
N	 1.8090890465	-1.3747989567	 2.9418593968	-0.236838
C	 0.8679850028	-0.4342370906	 2.5816838648	-0.253933
C	 0.730257333	-0.5233768833	 1.2195255446	 0.241479
H	 1.1314460912	 1.8855771299	-0.1157187558	 0.118307
H	-0.3900157386	 1.8882022732	-1.0353680641	 0.120638
H	-0.421703849	 2.0827210256	 0.7287307345	 0.106817
H	-1.0854830425	-0.2209384231	 0.0935125542	 0.077875
H	 1.0006295671	-2.6125111244	-1.0332769299	 0.10029
H	 2.3907046772	-1.5416837663	-1.2858549959	 0.108284
H	 3.0131987984	-2.8287149624	 1.9294211765	 0.122579
H	 2.1307378009	-1.5305970521	 3.8812872053	 0.260085
H	 0.4008782301	 0.1928368711	 3.3236746426	 0.121522
68.2136	154.93	222.2586	230.2028	297.2275	445.7885	465.7037	480.2023	610.4061	625.964	648.4057	680.7724	717.986	749.9147	783.8136	859.5571	937.4919	997.233	1039.415	1045.2019	1071.4952	1086.2843	1100.2133	1129.0008	1177.8858	1197.1909	1244.3349	1312.2415	1329.9817	1352.4737	1381.6527	1401.0183	1438.4963	1467.4055	1483.7262	1494.1267	1524.7886	1564.1591	1639.2796	2952.3538	2971.3251	3020.385	3037.1038	3109.3895	3123.2049	3261.1449	3263.9776	3680.2465
CC1OCC2=CNC=C12	C[C@H]1OCc2c[nH]cc12	
InChI=1S/C7H9NO/c1-5-7-3-8-2-6(7)4-9-5/h2-3,5,8H,4H2,1H3	InChI=1S/C7H9NO/c1-5-7-3-8-2-6(7)4-9-5/h2-3,5,8H,4H2,1H3/t5-/m1/s1
