16
gdb 10549	2.67468	1.84721	1.31135	3.7373	65.64	-0.2763	0.012	0.2883	958.9734	0.130028	-379.887173	-379.878753	-379.877809	-379.920812	29.394	
C	 0.0538679008	 0.7206646728	 0.3820812697	-0.250303
O	 0.9793946653	 0.4592135367	-0.6610207374	-0.224992
C	 0.5361989876	-0.479738918	-1.6111631114	-0.174818
C	 0.5281650943	-1.9189624276	-1.0744058001	 0.137771
C	 1.5050716983	-2.9030409831	-1.6441925596	-0.258355
N	 1.7114904495	-2.3581275555	-0.3076002655	-0.315011
C	-0.7414105306	-2.4048361469	-0.575574347	 0.27023
N	-1.7772300432	-2.7683536369	-0.2119192408	-0.34144
H	-0.9171209818	 1.0444714631	-0.0193509028	 0.118885
H	-0.1066001079	-0.1562489925	 1.0222211462	 0.138601
H	 0.4786648428	 1.526251712	 0.9844554996	 0.135471
H	-0.4626433842	-0.2226011423	-1.9928650207	 0.118116
H	 1.2478011953	-0.4138517178	-2.4394689482	 0.118298
H	 1.2418762656	-3.9557735961	-1.6730856863	 0.145729
H	 2.1202173192	-2.5565495379	-2.4707941147	 0.128457
H	 2.379978969	-1.58911713	-0.312919321	 0.253362
42.7427	95.0872	171.4088	187.5231	228.5053	271.2658	325.173	404.6616	485.9582	574.752	596.746	716.801	876.1526	900.1009	909.7614	956.1884	983.3744	1027.4786	1095.0758	1140.5804	1148.4006	1178.8788	1218.3618	1252.5941	1284.1249	1307.8393	1386.3218	1400.4341	1475.0765	1486.9657	1493.7475	1504.9057	1512.0119	2353.61	2997.148	3005.1835	3059.5095	3086.1733	3113.0106	3127.1585	3206.497	3488.2773
COCC1(CN1)C#N	COC[C@]1(CN1)C#N	
InChI=1S/C5H8N2O/c1-8-4-5(2-6)3-7-5/h7H,3-4H2,1H3	InChI=1S/C5H8N2O/c1-8-4-5(2-6)3-7-5/h7H,3-4H2,1H3/t5-/m1/s1
