16
gdb 54569	3.08434	1.64061	1.23607	10.0632	70.28	-0.1965	0.0157	0.2121	985.958	0.125584	-437.793304	-437.786035	-437.785091	-437.825652	27.648	
O	-0.2605242624	-0.0263301874	-0.0659193038	-0.495201
C	 0.0106400202	 1.186034603	 0.0035701399	 0.269059
O	 1.0406115453	 1.861700439	 0.0600327345	-0.454369
C	-1.2842295219	 2.0351526614	 0.0222742482	 0.237621
N	-2.6359001569	 1.2729405159	-0.0450634848	-0.282163
H	-2.7658876282	 0.7508796307	-0.9108134739	 0.294901
H	-2.7994098142	 0.6631572375	 0.755183494	 0.2949
C	-3.0282340025	 2.7432240875	 0.0244595857	-0.046146
C	-1.8847660262	 3.087016041	 1.0185948873	-0.082691
C	-1.3783296883	 4.2470436109	 0.1368304946	-0.262285
C	-1.8465347078	 3.187048543	-0.8814224743	-0.082681
H	-4.0780047291	 3.0325809836	 0.0185731793	 0.120397
H	-1.9214069775	 2.9938924466	 2.1029431522	 0.108934
H	-1.940293855	 5.183101869	 0.1748049901	 0.106128
H	-0.3008522758	 4.4076548628	 0.1669566525	 0.164661
H	-1.8394418698	 3.2083295555	-1.9701471115	 0.108935
58.8793	132.3304	160.4493	321.1676	383.0795	431.9756	488.0402	687.7901	721.4087	759.657	773.887	796.2617	862.9035	871.7359	898.0855	932.7384	939.6006	986.2337	1004.3942	1043.5416	1053.214	1084.8656	1089.8853	1127.5812	1155.8887	1160.2668	1209.2475	1233.3476	1255.5885	1256.9518	1314.378	1329.1028	1499.3596	1648.5305	1811.1625	3072.0508	3126.622	3135.5926	3141.7038	3156.5205	3458.7336	3550.4129
[O-]C(=O)C12[NH2+]C3C1CC23	O=C([O])[C@@]12[NH2][C@H]3[C@@H]1C[C@@H]23	
InChI=1S/C6H7NO2/c8-5(9)6-2-1-3(6)4(2)7-6/h2-4,7H,1H2,(H,8,9)	InChI=1S/C6H7NO2/c8-5(9)6-2-1-3(6)4(2)7-6/h2-4H,1,7H2/t2-,3+,4-,6+
