19
gdb 58374	2.21569	1.18765	0.93207	2.9015	81.88	-0.2361	0.0221	0.2583	1323.9368	0.156514	-382.031953	-382.02151	-382.020566	-382.067831	37.073	
C	 0.6391045307	-0.338468627	 1.3052951651	-0.332114
N	 0.0853339318	-0.1416983615	-0.0292719645	-0.0325
C	 1.0184377913	-0.5497822909	-1.0737864404	-0.340187
C	-1.2566279887	-0.6846542991	-0.1587871991	-0.117484
C	-2.0136151651	-0.1761640415	-1.4151082792	-0.390986
C	-2.1330322299	 1.2739533143	-1.4463983055	 0.319099
C	-2.2515824948	 2.4689523474	-1.4680538779	-0.438365
C	-1.2820884441	-2.1732114683	-0.1430661066	 0.271262
N	-1.2382126183	-3.3286658377	-0.1294909157	-0.329686
H	 1.5830522464	 0.2079356874	 1.3840944996	 0.127846
H	-0.0491130187	 0.0648913929	 2.0545456003	 0.124766
H	 0.8343723384	-1.3977310275	 1.5475815559	 0.119199
H	 1.2229698437	-1.6341012926	-1.0776125131	 0.121101
H	 0.6429479327	-0.2627743418	-2.0588231861	 0.129429
H	 1.9644072642	-0.0242419615	-0.9190554169	 0.129396
H	-1.8230406922	-0.3481733881	 0.7165711837	 0.136237
H	-1.5164008459	-0.5403365421	-2.3201760059	 0.14935
H	-3.0084352876	-0.63645283	-1.4133640545	 0.152744
H	-2.350315554	 3.5259891676	-1.4922177392	 0.200892
43.9887	83.1221	115.659	133.2847	210.5183	234.5912	244.8529	275.3025	349.6223	350.7056	385.834	426.8483	494.8992	580.3807	614.7131	623.4119	653.582	771.3951	914.8673	946.1871	979.1149	1031.1009	1065.8489	1094.4484	1123.9241	1185.0893	1188.2767	1258.9417	1286.4033	1314.6282	1356.191	1383.5463	1445.2005	1466.6173	1479.7437	1487.3722	1499.9141	1500.5815	1516.1275	2245.5365	2339.5765	2958.6819	2968.0811	3044.3916	3052.2868	3069.2987	3080.0346	3085.4099	3112.5663	3123.1564	3505.7741
CN(C)C(CC#C)C#N	CN(C)[C@@H](CC#C)C#N	
InChI=1S/C7H10N2/c1-4-5-7(6-8)9(2)3/h1,7H,5H2,2-3H3	InChI=1S/C7H10N2/c1-4-5-7(6-8)9(2)3/h1,7H,5H2,2-3H3/t7-/m0/s1
