17
gdb 72387	2.85484	2.03231	1.3736	1.6735	72.03	-0.2467	0.0047	0.2514	919.6374	0.137425	-421.771724	-421.765184	-421.76424	-421.802164	27.959	
O	 0.1561661591	 1.383682365	 0.1485280224	-0.497834
C	 0.0792630439	-0.000511222	 0.0594711569	 0.464942
C	 1.0665563074	-0.6307561262	 1.0274450191	-0.344578
C	 1.0162390143	-2.1315433066	 0.9635480989	-0.086015
C	 0.1699464471	-2.7257136524	 0.1229936708	-0.080068
C	-0.7123980727	-1.876439661	-0.7393916831	-0.055315
C	-1.3544075507	-0.6180576764	-0.0952280454	-0.028703
O	-1.43533491	 0.0167349047	-1.4345491564	-0.347465
C	-0.0890511012	-0.6058356688	-1.3778652669	-0.028705
H	-0.4949822397	 1.709489172	-0.4907639043	 0.286843
H	 2.0742162544	-0.2582725025	 0.7979280777	 0.125552
H	 0.8473107171	-0.2700759757	 2.0416640652	 0.125551
H	 1.6775774648	-2.6994577851	 1.6106095437	 0.097451
H	 0.1007076106	-3.8057888707	 0.0444065505	 0.094882
H	-1.3865200612	-2.4087929706	-1.4095004519	 0.085315
H	-2.2283594562	-0.5409908138	 0.553697819	 0.094074
H	 0.547151713	-0.5141886098	-2.2597294962	 0.094073
210.4334	272.1176	346.9367	408.4408	441.0792	474.9255	548.0104	595.9376	605.0209	680.4715	702.1592	772.9777	786.8995	826.1879	883.2953	910.6733	919.9141	957.2987	987.0633	1011.9079	1031.128	1063.0339	1075.2789	1130.9518	1143.2634	1163.4711	1189.0765	1200.5184	1225.9671	1251.8693	1273.0252	1347.1706	1374.1385	1406.2698	1432.0783	1472.1125	1710.2061	3017.1171	3041.499	3105.4658	3110.0081	3128.5755	3168.8012	3191.6989	3728.2063
OC12CC=CC3C1OC23	O[C@@]12CC=C[C@H]3[C@@H]1O[C@@H]23	
InChI=1S/C7H8O2/c8-7-3-1-2-4-5(7)9-6(4)7/h1-2,4-6,8H,3H2	InChI=1S/C7H8O2/c8-7-3-1-2-4-5(7)9-6(4)7/h1-2,4-6,8H,3H2/t4-,5-,6+,7-
