19
gdb 112064	2.02908	1.64923	0.9995	1.5017	83.44	-0.2477	0.0075	0.2552	1216.1534	0.157981	-385.85152	-385.842392	-385.841448	-385.885703	33.821	
C	 0.370003458	 1.1706947669	 0.419915713	-0.234834
O	 0.2899435097	-0.2127764392	 0.1718346317	-0.237398
C	 0.487260106	-0.5686234463	-1.1878810765	 0.094882
C	 1.948669937	-0.514571655	-1.5929800923	-0.09601
C	 2.5069650514	-1.7236903125	-1.5745523658	-0.062069
C	 1.5220808907	-2.8072319251	-1.2171241662	-0.265305
C	 0.1550111481	-2.0796327271	-1.3771508448	-0.228216
C	-0.9211515431	-2.5909892012	-0.5447816388	 0.348955
C	-1.8127836249	-3.0485709492	 0.118460942	-0.462735
H	 1.3782112891	 1.5739183884	 0.2422725152	 0.103693
H	-0.3419508148	 1.7366261767	-0.2023135077	 0.102106
H	 0.1157269457	 1.3235921002	 1.47161493	 0.128981
H	-0.1604850553	 0.0606202053	-1.8178692258	 0.067089
H	 2.4658737469	 0.414428602	-1.8020335697	 0.097021
H	 3.5536777754	-1.9327041194	-1.7686705292	 0.099863
H	 1.5894606688	-3.6880379299	-1.8635645913	 0.111737
H	 1.671185307	-3.1547536173	-0.1878239144	 0.131191
H	-0.1385991706	-2.1871566034	-2.4288093726	 0.111427
H	-2.5983395651	-3.4378345642	 0.7169751832	 0.189623
67.8203	93.2077	127.6533	185.564	205.3734	281.5072	312.9706	371.6304	479.3711	506.7172	551.1167	615.0591	635.9137	680.8514	744.9777	792.0352	842.8515	918.3791	968.3394	975.1337	985.8915	1028.221	1057.8168	1083.708	1129.0964	1151.1111	1166.0905	1182.3352	1214.9767	1281.2184	1298.7928	1302.1501	1352.0468	1360.9459	1382.4016	1478.3744	1484.1394	1490.2571	1510.0678	1681.4324	2240.1699	2970.1151	2979.8034	3019.0973	3027.9886	3040.0862	3079.546	3112.7856	3181.7945	3209.7871	3506.791
COC1C=CCC1C#C	CO[C@H]1C=CC[C@H]1C#C	
InChI=1S/C8H10O/c1-3-7-5-4-6-8(7)9-2/h1,4,6-8H,5H2,2H3	InChI=1S/C8H10O/c1-3-7-5-4-6-8(7)9-2/h1,4,6-8H,5H2,2H3/t7-,8+/m1/s1
