19
gdb 116255	2.12423	1.54822	1.10791	5.0641	74.9	-0.2435	0.0199	0.2634	1164.7331	0.160258	-419.204376	-419.195137	-419.194192	-419.239818	32.716	
C	 0.0096361947	 1.4019628745	 0.1027035314	-0.246129
O	-0.0487136186	 0.0335836684	-0.2472736476	-0.229119
C	-1.2997652264	-0.5619085235	-0.0499402451	 0.150213
C	-1.3159686323	-1.9769519101	-0.654549751	-0.260062
C	-2.1975920459	-2.8206081783	 0.3053419613	-0.176197
N	-2.6804104843	-1.922798012	 1.3810573252	-0.28052
C	-1.7317683682	-0.8096224769	 1.4397425199	-0.231822
C	-0.5721943414	-1.1528337055	 2.281048648	 0.329427
N	 0.3408189513	-1.4105042465	 2.9402996884	-0.32796
H	 1.0015131181	 1.7608213647	-0.1790675675	 0.138847
H	-0.749939998	 1.987722386	-0.4375806317	 0.106027
H	-0.1243298318	 1.5597152886	 1.1819931553	 0.118583
H	-2.0915938795	 0.0619899159	-0.4975794474	 0.068203
H	-1.6983756504	-1.9663889455	-1.6771978834	 0.110863
H	-0.2875130359	-2.3450292748	-0.6883714638	 0.135927
H	-3.0528608935	-3.2830224176	-0.1921846323	 0.110211
H	-1.6105084541	-3.6267439469	 0.7561795367	 0.132251
H	-3.5910938923	-1.5493317214	 1.1378619427	 0.229221
H	-2.2133736716	 0.066201891	 1.8836799609	 0.122035
24.8093	86.5888	111.2752	141.8286	201.3225	235.5374	277.3364	380.1309	438.8497	503.5977	600.926	679.3197	699.3701	747.3758	805.7212	863.3583	904.3931	949.3167	990.1636	1027.223	1062.8379	1095.7204	1112.5403	1165.4461	1181.8222	1204.9105	1220.0431	1240.117	1279.7892	1294.7514	1323.3496	1354.2743	1369.1556	1391.545	1466.7419	1480.6715	1491.1788	1495.0013	1504.6969	1514.3226	2359.8296	2956.7311	2982.407	3037.9423	3054.1258	3073.2314	3077.4055	3099.7377	3124.0474	3126.1452	3536.1798
COC1CCNC1C#N	CO[C@H]1CCN[C@H]1C#N	
InChI=1S/C6H10N2O/c1-9-6-2-3-8-5(6)4-7/h5-6,8H,2-3H2,1H3	InChI=1S/C6H10N2O/c1-9-6-2-3-8-5(6)4-7/h5-6,8H,2-3H2,1H3/t5-,6-/m0/s1
