18
gdb 46042	4.46016	0.99907	0.85165	4.5106	74.17	-0.2509	0.0575	0.3085	1341.3457	0.148938	-439.093791	-439.085753	-439.084808	-439.127217	29.971	
N	 0.1100820243	 1.250086538	 0.5340661517	-0.575414
C	 0.0771455868	 0.1064336453	 0.0136936829	 0.489733
O	 1.1383778371	-0.7319236957	-0.1887409333	-0.251826
C	 0.700265133	-1.8507404955	-0.961170854	-0.125657
C	-0.8235078256	-1.8374380723	-0.7730840449	 0.094746
O	-1.0682477338	-0.4614744567	-0.4272291191	-0.241565
C	-1.6230181894	-2.2307978612	-1.9778792249	-0.001541
C	-1.9931194758	-3.6842515299	-2.1726964714	-0.274261
C	-3.0537891677	-2.6759258046	-1.8225543515	-0.266186
H	 1.0702599657	 1.5020079881	 0.756509451	 0.229754
H	 0.9807046758	-1.7064322361	-2.0119077125	 0.116431
H	 1.1783737252	-2.7548715178	-0.5802416248	 0.12931
H	-1.1121671499	-2.4583024692	 0.0866679555	 0.090113
H	-1.381135415	-1.6607032476	-2.8704562782	 0.096863
H	-1.9642384046	-4.0825796533	-3.1800805628	 0.122292
H	-1.6945430544	-4.3935094167	-1.4075506429	 0.117152
H	-3.4689087582	-2.6990114258	-0.8208201879	 0.125651
H	-3.7592221633	-2.3792367591	-2.5896715029	 0.124407
69.7267	84.376	145.6943	186.1865	283.4776	379.6501	396.9541	518.6516	671.9711	717.4323	723.4691	780.182	805.9287	834.9085	869.8982	900.8917	928.5091	956.179	991.2842	1027.7841	1059.8251	1074.5507	1085.9543	1094.3919	1111.1781	1133.6583	1197.4768	1206.4383	1224.6184	1240.0968	1266.0133	1325.4123	1364.8308	1405.3415	1450.1634	1471.4184	1508.0485	1519.8264	1801.131	3006.0368	3031.9499	3115.7027	3135.0986	3141.553	3150.0992	3215.6687	3230.9591	3535.7495
N=C1OCC(O1)C1CC1	[NH][C]1OC[C@@H](O1)C1CC1	
InChI=1S/C6H9NO2/c7-6-8-3-5(9-6)4-1-2-4/h4-5,7H,1-3H2	InChI=1S/C6H9NO2/c7-6-8-3-5(9-6)4-1-2-4/h4-5,7H,1-3H2/t5-/m1/s1
