20
gdb 83848	2.09234	1.7619	1.27553	3.3692	79.63	-0.2315	-0.0219	0.2096	1081.2791	0.172283	-403.148116	-403.139826	-403.138881	-403.180971	32.062	
C	-0.308729941	 1.4298416164	 0.2876783185	-0.326702
N	 0.0291891991	 0.0435906688	 0.0133346785	-0.086653
C	 0.4978752883	-0.4260213371	-1.2757047959	-0.036736
C	 0.8085707237	 0.5169691959	-2.437798238	-0.232715
C	 2.2815143659	 0.9524005541	-2.4926450429	-0.208255
C	 2.7728043606	 1.483341801	-1.1368509138	-0.313753
C	 2.618812814	 0.4417550576	-0.0349186057	 0.394011
O	 3.4695705275	 0.2788209535	 0.8130356941	-0.323888
C	 1.4081729323	-0.450635635	-0.0662262718	-0.126963
H	 0.2323411388	 2.1895340739	-0.2924477676	 0.105553
H	-1.3777487167	 1.5632701302	 0.0913961936	 0.130062
H	-0.1345225531	 1.6260536623	 1.3495121659	 0.138568
H	 0.0520533863	-1.3768301683	-1.5631920487	 0.09969
H	 0.5420745747	 0.0126904776	-3.3715600196	 0.108667
H	 0.164628573	 1.4030831376	-2.3807265411	 0.11052
H	 2.900636337	 0.094689269	-2.7834379799	 0.111084
H	 2.4215661847	 1.7147889777	-3.2667592442	 0.103065
H	 3.8280087032	 1.7677975552	-1.1640974177	 0.124224
H	 2.2089674361	 2.3841595956	-0.8602807091	 0.124399
H	 1.5748368056	-1.3737488861	 0.4843245353	 0.105826
78.4055	131.3247	180.9814	235.6132	296.0657	348.5527	406.6522	443.5104	470.7853	523.0724	583.2972	699.27	715.3427	733.1072	788.4948	885.0734	902.3346	936.5342	961.9466	1028.6425	1053.9144	1080.3303	1101.5079	1137.9477	1142.8264	1169.503	1180.675	1207.9881	1259.641	1278.147	1327.1811	1343.9372	1363.8837	1367.4781	1381.2463	1401.3733	1450.8689	1463.3533	1481.1127	1497.3671	1504.1337	1508.6824	1790.1603	3006.4359	3024.3482	3030.4842	3035.581	3071.0031	3072.8679	3080.8005	3099.7074	3109.3222	3113.8546	3136.8568
CN1C2CCCC(=O)C12	CN1[C@H]2CCCC(=O)[C@@H]12	
InChI=1S/C7H11NO/c1-8-5-3-2-4-6(9)7(5)8/h5,7H,2-4H2,1H3	InChI=1S/C7H11NO/c1-8-5-3-2-4-6(9)7(5)8/h5,7H,2-4H2,1H3/t5-,7-,8?/m0/s1
