21
gdb 118976	2.41263	1.01152	0.94754	0.9388	74.68	-0.2501	0.0728	0.3229	1379.4748	0.180328	-461.340462	-461.3302	-461.329256	-461.375626	38.018	
O	-0.1125774414	 1.4803410507	 0.0593756583	-0.423237
C	 0.0242060357	 0.0671560313	 0.1327296222	-0.082029
C	-1.3631866237	-0.5355293016	-0.0585273554	-0.230049
C	-1.3742851715	-2.0640219078	 0.0065870677	 0.374572
O	-0.4576704838	-2.6325405545	-0.9150380645	-0.485235
C	-1.2040608454	-2.6541968099	 1.4333383007	-0.263147
C	-2.7490175121	-2.7768189946	 1.5407993623	-0.276154
C	-2.808398471	-2.6678468296	-0.0055463119	 0.083095
O	-3.7903041712	-1.8696212454	-0.6228544606	-0.436387
H	 0.7623961317	 1.8686910461	 0.1492248234	 0.283815
H	 0.7046650758	-0.3126216348	-0.6423049097	 0.089255
H	 0.4408374199	-0.240040498	 1.1051549163	 0.085249
H	-2.0399500668	-0.1209939323	 0.6955751466	 0.112747
H	-1.7635758526	-0.2116028085	-1.0269999392	 0.109334
H	-0.6411659017	-2.2571103425	-1.7839947971	 0.277131
H	-0.711364007	-3.6273030419	 1.3798299735	 0.114682
H	-0.6953118484	-2.0361162669	 2.174861447	 0.103039
H	-3.1573216959	-3.678295219	 2.0022639882	 0.095642
H	-3.2004598466	-1.8984356552	 2.0095530048	 0.110663
H	-2.7503955457	-3.6657671538	-0.4633878635	 0.071454
H	-4.6382098986	-2.3190151117	-0.5530886389	 0.285559
72.6556	109.607	125.0081	148.1732	227.2922	256.905	268.0421	276.5995	326.6615	340.8526	378.0618	430.889	510.9012	558.5789	624.641	762.0008	797.4212	804.0497	893.6061	929.9625	965.2307	985.8464	1019.051	1049.542	1086.5786	1099.47	1129.2169	1140.0328	1174.6443	1199.3585	1220.5564	1235.8627	1254.9772	1258.8172	1283.7176	1308.2944	1325.0582	1351.3739	1386.8764	1423.4559	1459.6884	1481.3998	1484.2989	1501.7907	1529.2118	2974.7025	3000.4539	3014.2795	3042.359	3065.5526	3076.734	3088.9408	3116.8577	3135.3467	3792.977	3820.4803	3830.0344
OCCC1(O)CCC1O	OCC[C@@]1(O)CC[C@H]1O	
InChI=1S/C6H12O3/c7-4-3-6(9)2-1-5(6)8/h5,7-9H,1-4H2	InChI=1S/C6H12O3/c7-4-3-6(9)2-1-5(6)8/h5,7-9H,1-4H2/t5-,6+/m1/s1
