18
gdb 55836	4.44421	0.78171	0.77078	1.7391	73.87	-0.2413	-0.0346	0.2068	1496.782	0.144169	-439.088456	-439.078995	-439.078051	-439.124293	33.208	
C	-0.9856579862	 0.394216886	 0.1887543142	-0.463546
C	 0.4746992801	 0.4225041359	-0.2133163169	 0.373461
O	 1.2719757493	 1.1881139879	 0.2745105996	-0.289671
C	 0.9124874465	-0.5447799587	-1.3206164734	-0.258627
N	 0.242368321	-1.8267705673	-1.2716761378	-0.095594
C	 0.710279596	-2.8176327222	-0.2695798256	-0.294255
C	 0.6563932963	-3.879101581	-1.3786686207	 0.395246
O	 0.7331919369	-5.0678284912	-1.4213403632	-0.272375
C	 0.4417906786	-2.7592218691	-2.408358525	-0.284305
H	-1.6326828187	 0.4120979767	-0.6939348857	 0.138862
H	-1.2126504291	-0.5390653354	 0.7144378828	 0.148353
H	-1.1998050992	 1.242341257	 0.8400146178	 0.139348
H	 0.6486696128	-0.0585118252	-2.270412068	 0.131104
H	 2.0137455449	-0.6149560911	-1.284581373	 0.10683
H	 1.7410086568	-2.6531148457	 0.085186823	 0.129295
H	 0.0556354136	-2.9625645285	 0.596141951	 0.135562
H	-0.4092015805	-2.8564166036	-3.0906020675	 0.136765
H	 1.3551888609	-2.5761864143	-2.9972574217	 0.123546
40.1821	67.3047	81.3336	107.2035	162.7313	291.1059	331.271	405.6766	430.2326	472.3172	495.8069	539.7036	681.4025	755.7624	772.7829	800.3409	873.0775	953.7308	997.9105	1021.6347	1056.54	1073.1099	1095.5519	1121.0274	1158.9311	1220.0903	1222.2276	1242.1067	1283.5888	1304.914	1361.8986	1384.1558	1451.316	1456.6652	1460.5948	1470.5632	1486.8873	1818.2832	1925.6532	2955.8409	2977.3162	2986.3259	3034.4722	3046.7327	3071.073	3071.9944	3107.8012	3155.6633
CC(=O)CN1CC(=O)C1	CC(=O)CN1CC(=O)C1	
InChI=1S/C6H9NO2/c1-5(8)2-7-3-6(9)4-7/h2-4H2,1H3	InChI=1S/C6H9NO2/c1-5(8)2-7-3-6(9)4-7/h2-4H2,1H3
