18
gdb 55188	3.38813	1.31457	1.11803	6.5417	71.25	-0.2401	0.0251	0.2652	1102.2536	0.15009	-439.085399	-439.07796	-439.077015	-439.117723	28.871	
O	 0.273584476	 0.3109632038	-0.7379688326	-0.343904
C	-0.0114218002	 1.1578208611	 0.0694862767	 0.391263
O	 0.8042773127	 1.482303895	 1.0813391346	-0.383636
C	-1.3463357079	 1.8954545881	 0.0416342901	-0.119917
C	-2.4224409025	 1.4775573801	 1.1091443215	-0.258252
C	-2.691085449	 2.9754038295	 1.4384473652	-0.036982
C	-1.9025782903	 3.528813001	 2.6424010477	-0.175758
N	-0.670083177	 3.6025522651	 1.7977421638	-0.343811
H	-0.1922071855	 4.4954532895	 1.8220721206	 0.240026
H	 0.4061675515	 2.2504629817	 1.574741965	 0.310458
C	-1.4669877672	 3.3582674106	 0.5507413939	-0.021513
H	-1.7485746606	 1.8018517444	-0.9677203396	 0.105124
H	-3.2693157267	 0.9294784227	 0.6944302917	 0.121466
H	-2.0213189019	 0.907004985	 1.9509909559	 0.118721
H	-3.7004974741	 3.3470378468	 1.2731703778	 0.085328
H	-2.2572279214	 4.5140746282	 2.9646813831	 0.110475
H	-1.8011159735	 2.8822998479	 3.5203082455	 0.118469
H	-1.4461875924	 4.1689940097	-0.1797301607	 0.082443
74.6703	124.2565	216.0946	296.0539	351.1938	377.288	439.1411	657.4234	683.5278	729.673	747.984	776.641	796.0855	843.9801	896.7833	932.5964	953.8081	988.5222	1001.1176	1009.2386	1020.3078	1059.0674	1075.863	1129.4173	1166.8818	1172.1832	1218.0315	1241.195	1266.6804	1272.7688	1299.647	1308.7491	1312.7622	1354.1922	1376.3457	1484.1794	1504.1223	1513.758	1849.2744	3031.3971	3069.6207	3081.7056	3089.6556	3108.5081	3123.7582	3136.1048	3170.0764	3549.5048
[O-]C(=O)C1CC2C[NH2+]C12	O=C(O)[C@H]1C[C@H]2CN[C@@H]12	
InChI=1S/C6H9NO2/c8-6(9)4-1-3-2-7-5(3)4/h3-5,7H,1-2H2,(H,8,9)	InChI=1S/C6H9NO2/c8-6(9)4-1-3-2-7-5(3)4/h3-5,7H,1-2H2,(H,8,9)/t3-,4-,5+/m0/s1
