13
gdb 11681	5.08718	1.55446	1.35691	2.5434	68.31	-0.2566	-0.0059	0.2507	885.7712	0.094402	-361.395436	-361.38861	-361.387666	-361.426337	26.212	
N	-0.0254789466	 1.1761187812	-0.0753560927	-0.550035
C	-0.0548737129	-0.0706705218	 0.0223769758	 0.448598
O	 0.9854665449	-0.9888638985	 0.1854124653	-0.295547
C	 0.0449686282	-2.0953032376	 0.0151407408	 0.290083
C	-0.9389177922	-2.055668806	 1.1395779462	-0.324716
C	-1.1233421985	-1.1098506989	-0.0423015207	-0.252504
C	 0.4123575363	-3.1975109971	-0.7933624655	 0.227808
C	 0.7268882854	-4.1421062449	-1.467541026	-0.403796
H	 0.928997494	 1.5328764342	-0.0079408162	 0.235196
H	-1.6493557804	-2.8751233171	 1.1701397494	 0.143563
H	-0.6156887614	-1.6736917406	 2.1025724741	 0.13996
H	-2.003429336	-1.1009026243	-0.6673924982	 0.13782
H	 1.0072648291	-4.9728907488	-2.0670577021	 0.20357
110.615	163.4314	247.9537	408.5018	424.2885	486.789	515.2256	587.994	614.9055	650.1809	699.878	732.7157	843.6545	860.8104	893.1645	937.7457	966.2695	986.7588	999.549	1064.547	1085.4113	1131.0733	1226.7571	1283.6264	1377.0616	1475.8466	1839.3733	2242.259	3129.8591	3226.7001	3240.6011	3483.1932	3500.8816
N=C1OC2(CC12)C#C	[NH][C]1O[C@]2(C[C@@H]12)C#C	
InChI=1S/C6H5NO/c1-2-6-3-4(6)5(7)8-6/h1,4,7H,3H2	InChI=1S/C6H5NO/c1-2-6-3-4(6)5(7)8-6/h1,4,7H,3H2/t4-,6-/m0/s1
