17
gdb 62461	3.82432	1.1866	1.16862	2.0896	75.36	-0.2412	0.0292	0.2703	1106.0182	0.134769	-421.770444	-421.761999	-421.761055	-421.803245	31.966	
O	-0.1066756099	 1.3984281712	-0.05813559	-0.453556
C	-0.0310306372	 0.001885194	-0.0039607559	 0.196607
C	 1.0528700096	-0.579942904	-0.7567127762	 0.267372
C	 1.9799265633	-1.0449528758	-1.36621928	-0.404429
C	-0.4687073371	-0.7449381605	 1.255166501	-0.149308
C	-1.2195507335	 0.0556333645	 2.3035439329	-0.096869
O	-2.31134411	 0.6876115079	 1.651509031	-0.249468
C	-2.5804283296	 0.0613537397	 0.4038202919	-0.09493
C	-1.3473194282	-0.7415511395	 0.0272376843	-0.124339
H	 0.7025493958	 1.7551371978	 0.3244770468	 0.289603
H	 2.7904412726	-1.4547959084	-1.916495184	 0.194661
H	 0.0971193947	-1.6164580788	 1.5611623128	 0.104998
H	-1.5657458951	-0.6249754712	 3.0976817353	 0.094505
H	-0.6158420873	 0.8420686305	 2.7724268148	 0.102458
H	-3.442343253	-0.6202371766	 0.478720411	 0.092946
H	-2.8237307333	 0.8497622253	-0.315789037	 0.121453
H	-1.4624219119	-1.6109792862	-0.6078805287	 0.108297
125.9504	140.4658	157.5365	194.9926	230.1778	262.9829	402.1932	426.0122	539.3667	565.6848	588.766	674.7297	691.2489	719.8636	748.9767	848.4365	858.5123	921.8871	1001.3625	1002.6355	1010.9314	1018.5885	1081.3451	1123.527	1133.5302	1151.5502	1227.0322	1233.7778	1254.536	1299.317	1317.3219	1359.0644	1383.4554	1438.8942	1510.5973	1522.0221	2231.2702	2974.633	2982.1641	3043.6628	3070.3717	3186.5071	3196.0417	3501.5418	3803.4049
OC1(C#C)C2COCC12	O[C@@]1(C#C)[C@H]2COC[C@@H]12	
InChI=1S/C7H8O2/c1-2-7(8)5-3-9-4-6(5)7/h1,5-6,8H,3-4H2	InChI=1S/C7H8O2/c1-2-7(8)5-3-9-4-6(5)7/h1,5-6,8H,3-4H2/t5-,6+,7-
