21
gdb 85665	2.45172	1.25081	1.08575	1.547	84.92	-0.2506	0.0503	0.3009	1234.2402	0.179373	-387.052847	-387.042659	-387.041715	-387.087201	38.74	
C	-0.0999081544	 1.5092716485	-0.0791306319	-0.426945
C	-0.0303577705	-0.0178729864	-0.0371860554	 0.280879
C	-1.4021001085	-0.6361846484	-0.2828035476	-0.45875
C	 1.1435368243	-0.5788137736	-0.8941088225	 0.107427
O	 1.5111390457	 0.2343407034	-1.9825659329	-0.4312
C	 2.0451531902	-0.6129701895	 0.3646107098	-0.295791
C	 0.7472465687	-0.5620068574	 1.2303848864	-0.205327
C	 0.7497027194	 0.2071796838	 2.4555111521	 0.327247
C	 0.7522354743	 0.8572151665	 3.4681194864	-0.457765
H	 0.8714414977	 1.9744348725	 0.1040060501	 0.121401
H	-0.4460070941	 1.8433265473	-1.0610376859	 0.121921
H	-0.795084861	 1.8757982234	 0.6820830491	 0.116798
H	-1.7921195014	-0.3385752016	-1.2626526755	 0.121332
H	-1.3599487079	-1.7305706433	-0.2558103007	 0.105798
H	-2.1217900412	-0.3089855637	 0.4759538921	 0.120509
H	 0.908627941	-1.6004813329	-1.2294505917	 0.061554
H	 2.2320059525	-0.194511352	-2.4540390801	 0.284479
H	 2.7076487038	-1.4691710566	 0.5092474964	 0.098688
H	 2.6187678946	 0.3114610584	 0.4574984315	 0.119888
H	 0.4063422863	-1.5815070196	 1.443282148	 0.096411
H	 0.7573708107	 1.426723921	 4.3640693521	 0.191447
80.7521	133.9677	178.7818	196.5944	217.7583	233.626	261.1407	277.4318	342.2489	353.1823	411.0535	480.2665	522.5329	573.9809	586.6979	616.2125	624.4013	726.5011	782.577	891.7798	912.642	959.9519	992.0035	1004.1271	1033.2788	1048.7877	1120.5743	1148.0465	1167.4644	1186.228	1208.6954	1244.5885	1259.3811	1295.9838	1330.3203	1353.767	1401.6243	1414.8885	1436.3291	1479.2082	1484.0934	1489.0439	1500.1684	1504.1584	2229.7957	2978.6958	3022.6292	3038.4371	3046.6335	3069.9355	3091.6582	3093.4582	3116.5179	3123.4444	3132.226	3504.9288	3820.3223
CC1(C)C(O)CC1C#C	CC1(C)[C@@H](O)C[C@H]1C#C	
InChI=1S/C8H12O/c1-4-6-5-7(9)8(6,2)3/h1,6-7,9H,5H2,2-3H3	InChI=1S/C8H12O/c1-4-6-5-7(9)8(6,2)3/h1,6-7,9H,5H2,2-3H3/t6-,7+/m1/s1
