21
gdb 94806	2.84688	1.30372	1.13939	3.0071	77.95	-0.2548	0.0574	0.3122	1180.6722	0.182185	-424.217948	-424.20885	-424.207906	-424.251754	34.735	
C	-0.3611936951	 1.4117701953	 0.0751085644	-0.435615
C	 0.0798954801	-0.048875258	 0.1203355426	 0.026891
C	 0.8322660482	-0.5304377882	-1.1462191314	-0.212331
C	 1.6601061898	-1.7643404904	-0.699891419	-0.31005
C	 1.5361578373	-1.78164061	 0.8255985066	 0.500851
C	 1.1917949373	-2.9875956271	 1.5915214286	-0.262491
O	 2.5176896378	-2.4519274773	 1.6011216963	-0.286926
C	 1.059738471	-0.4033487778	 1.2589953062	 0.003995
O	 2.2011762814	 0.4460581877	 1.2722433243	-0.436958
H	 0.4997217985	 2.077885067	-0.0506291839	 0.115483
H	-1.0337401194	 1.5915053056	-0.7697447311	 0.120715
H	-0.8932219171	 1.7045008319	 0.9875838625	 0.110787
H	-0.8075203549	-0.6814910253	 0.2640245388	 0.072719
H	 0.1443412987	-0.7552162708	-1.9656092667	 0.094508
H	 1.4994133842	 0.2645049986	-1.4917787567	 0.109929
H	 1.2946078082	-2.6968213348	-1.1388479814	 0.100697
H	 2.7129334034	-1.6663275137	-0.9770774439	 0.125564
H	 0.6483310101	-2.9071529246	 2.5328975722	 0.108872
H	 1.0722540666	-3.9354760464	 1.0672296901	 0.109253
H	 0.5780639338	-0.4226288735	 2.2466685107	 0.057629
H	 1.9173471401	 1.3204812919	 1.555487611	 0.286478
55.2841	117.4192	211.6868	218.5526	244.3264	276.9789	303.3829	335.4212	376.7557	460.9823	528.597	557.4816	628.1592	788.4649	818.5733	845.0909	884.2455	906.5594	928.0371	941.4766	981.5314	1000.3205	1019.9873	1078.6876	1116.1288	1135.7845	1151.4247	1164.0478	1182.9801	1197.3079	1238.9373	1261.212	1292.3877	1313.3403	1319.7524	1335.9448	1379.5408	1390.0299	1409.2052	1449.8259	1480.2134	1495.6685	1501.6596	1510.4593	1532.6739	2998.8823	3011.711	3026.3538	3054.506	3063.2097	3072.4985	3089.7986	3092.9226	3098.3799	3110.4783	3158.3768	3826.377
CC1CCC2(CO2)C1O	C[C@H]1CC[C@]2(CO2)[C@H]1O	
InChI=1S/C7H12O2/c1-5-2-3-7(4-9-7)6(5)8/h5-6,8H,2-4H2,1H3	InChI=1S/C7H12O2/c1-5-2-3-7(4-9-7)6(5)8/h5-6,8H,2-4H2,1H3/t5-,6-,7-/m0/s1
