19
gdb 80916	2.80628	1.44065	1.26651	2.2399	76.06	-0.2363	0.0598	0.296	1073.9877	0.159714	-419.106375	-419.098153	-419.097208	-419.138697	32.516	
C	 0.0456350326	 1.4450332105	-0.0061495822	-0.527927
C	-0.0090838948	-0.0506466737	 0.0680041487	 0.153076
N	 0.6655135216	-0.9579326099	-0.9796367739	-0.399611
C	 0.0190469868	-1.9192449614	 0.0169885457	-0.183902
C	 0.6480768408	-1.0131661896	 1.1200240461	 0.2024
O	 2.0291177286	-0.9860514423	 1.2570130493	-0.464379
C	-1.2096360371	-1.0098534227	 0.0686437252	 0.420141
C	-2.5399427751	-1.0269205027	 0.6907323868	-0.348667
N	-2.3715367176	-1.053677694	-0.795957248	-0.400121
H	 1.0858190999	 1.7844879057	 0.0019726852	 0.142606
H	-0.4291462944	 1.8239437864	-0.9185275129	 0.118846
H	-0.4640603357	 1.8912846221	 0.8542007417	 0.128888
H	 0.1182242696	-0.9514198511	-1.8445480244	 0.218421
H	 0.0784769112	-3.0000519615	-0.1064725352	 0.089236
H	 0.1921941028	-1.0448911594	 2.1104441508	 0.088665
H	 2.3651052664	-0.9795644563	 0.3472438438	 0.28856
H	-2.9457042171	-1.9420851094	 1.1129693741	 0.126646
H	-2.9131159039	-0.1133284883	 1.1475337247	 0.11603
H	-2.5732918847	-0.1300267826	-1.1746415053	 0.231092
155.2788	165.595	183.3577	217.9241	250.6132	337.4063	347.645	478.3877	499.2488	598.5823	611.4992	644.9514	734.5536	737.6259	792.5222	861.434	890.5209	919.1164	928.2932	950.1282	972.797	1048.5579	1059.6098	1085.6111	1104.9768	1132.019	1169.0231	1180.596	1191.0434	1235.3788	1238.1775	1261.1416	1264.6412	1329.8409	1337.6189	1408.4165	1438.5849	1468.6878	1483.4259	1486.2836	1528.8952	3029.4942	3094.8008	3105.0054	3111.4608	3115.1015	3129.356	3189.9862	3412.2011	3476.9046	3712.189
CC12NC(C1O)C21CN1	C[C@@]12N[C@@H]([C@H]1O)[C@]12CN1	
InChI=1S/C6H10N2O/c1-5-4(9)3(8-5)6(5)2-7-6/h3-4,7-9H,2H2,1H3	InChI=1S/C6H10N2O/c1-5-4(9)3(8-5)6(5)2-7-6/h3-4,7-9H,2H2,1H3/t3-,4+,5+,6-/m0/s1
