18
gdb 114587	2.69224	1.20178	0.96773	0.8705	80.33	-0.2235	0.0296	0.2531	1247.936	0.146512	-401.862108	-401.853169	-401.852225	-401.895814	33.697	
O	 0.0030786406	 1.3894314971	-0.2537702185	-0.425998
C	 0.0236019091	 0.0116846094	 0.101215968	-0.102232
C	-1.396872865	-0.5027671335	-0.0160478454	-0.04152
C	-2.0401244419	-0.6126333418	-1.443920785	-0.229373
C	-2.2394242968	-2.110859103	-1.205024264	-0.119312
N	-0.9002575989	-2.6813552035	-0.9781124228	-0.373275
C	-1.615163274	-2.0214046795	 0.1606506408	 0.203263
C	-1.9096104121	-2.7220454187	 1.3600674749	 0.172101
C	-2.1513855323	-3.2935000896	 2.3921421412	-0.411719
H	 0.9114220236	 1.7024907093	-0.2888917853	 0.286889
H	 0.6756758976	-0.569256533	-0.5642480186	 0.108083
H	 0.381825906	-0.1298703816	 1.134189958	 0.087704
H	-2.0504894391	 0.0577224344	 0.6566395275	 0.090296
H	-2.9741201571	-0.0546938073	-1.524322684	 0.108968
H	-1.3887059352	-0.3624976109	-2.2839222592	 0.115106
H	-3.0624141926	-2.7378953215	-1.5256820379	 0.106163
H	-1.0130205116	-3.6860210432	-0.8420076455	 0.236399
H	-2.3700148605	-3.8000234431	 3.2992813759	 0.188457
77.3416	126.7045	160.0415	164.5987	235.7607	263.9676	371.5712	412.2629	472.1178	521.2744	549.7526	574.6961	625.1217	660.5843	699.3345	830.0474	854.4394	895.0251	913.011	975.0999	1004.7048	1043.3489	1067.0403	1086.5566	1092.2521	1145.1964	1175.3685	1190.927	1222.8082	1254.0315	1267.7119	1289.1485	1327.8933	1371.0987	1394.6486	1459.7873	1478.9451	1526.0353	2229.5252	2968.2083	3033.7364	3076.3962	3087.0243	3135.2493	3192.1674	3474.8899	3503.0455	3830.9887
OCC1CC2NC12C#C	OC[C@H]1C[C@H]2N[C@@]12C#C	
InChI=1S/C7H9NO/c1-2-7-5(4-9)3-6(7)8-7/h1,5-6,8-9H,3-4H2	InChI=1S/C7H9NO/c1-2-7-5(4-9)3-6(7)8-7/h1,5-6,8-9H,3-4H2/t5-,6-,7+/m1/s1
