22
gdb 122381	4.58472	0.72199	0.7173	2.0264	83.35	-0.2273	0.079	0.3063	1710.9018	0.193908	-404.288013	-404.278557	-404.277613	-404.323586	34.463	
C	 0.72855603	 0.9342191797	-0.8606572202	-0.385249
C	 1.1419929153	-0.5257356327	-0.9349118132	-0.02558
O	 1.5963695887	-0.9304488804	 0.3405363577	-0.244647
C	 2.021629657	-2.2763854574	 0.3786396354	-0.093548
C	 2.5286999548	-2.542895971	 1.7764051411	 0.000911
C	 1.7759258601	-3.1822959321	 2.8740197896	-0.027054
C	 0.8414481295	-4.2878666319	 2.3898021243	-0.254103
C	 2.0839105115	-4.9101905524	 1.7060130973	-0.151734
N	 3.0084250224	-3.8518501361	 2.2604235088	-0.167802
H	 1.575815677	 1.5574112331	-0.5609303207	 0.127587
H	 0.3701919184	 1.279292092	-1.8351036906	 0.114564
H	-0.0718818083	 1.0694570091	-0.1277803281	 0.127087
H	 0.2918412937	-1.1535489838	-1.2530616679	 0.083802
H	 1.9400541157	-0.6651022832	-1.6842116905	 0.085991
H	 1.1948719514	-2.9446035916	 0.0953130395	 0.088161
H	 2.8368416295	-2.4448524294	-0.3473788965	 0.092539
H	 3.2080631976	-1.7571313166	 2.1010083347	 0.102253
H	 1.7929588128	-2.7831052903	 3.883608286	 0.092702
H	 0.460850117	-4.9065155898	 3.2042124117	 0.112428
H	-0.0025311244	-3.9822148159	 1.7635803836	 0.105392
H	 2.366906692	-5.8796812858	 2.1200445099	 0.11213
H	 2.0852405183	-4.9866452437	 0.6143007981	 0.104171
35.2701	75.1648	108.9744	125.7888	235.9224	247.8609	261.391	334.7411	403.4378	471.1114	573.2505	739.4968	771.7475	784.9404	790.8922	821.2749	895.694	929.0827	951.9414	992.0102	1010.1038	1027.8538	1048.8192	1077.0668	1105.5645	1142.0127	1146.1262	1166.4264	1179.1064	1194.484	1217.7731	1247.3265	1265.1374	1271.4793	1295.5096	1296.5809	1350.2462	1384.1678	1403.7328	1432.7393	1474.8055	1483.6273	1487.7884	1499.3559	1513.3379	1518.0582	1537.939	2944.9867	2955.3893	2974.7802	3000.9797	3045.2364	3050.6338	3058.0433	3103.5825	3119.6266	3122.0686	3122.2654	3132.4628	3158.3663
CCOCC1C2CCN12	CCOC[C@H]1[C@H]2CCN12	
InChI=1S/C7H13NO/c1-2-9-5-7-6-3-4-8(6)7/h6-7H,2-5H2,1H3	InChI=1S/C7H13NO/c1-2-9-5-7-6-3-4-8(6)7/h6-7H,2-5H2,1H3/t6-,7+,8?/m1/s1
