16
gdb 61199	3.89614	0.84121	0.78583	6.1613	71.79	-0.2798	0.0077	0.2876	1428.8518	0.121282	-437.853598	-437.843733	-437.842789	-437.88873	35.138	
O	 0.0194439535	 1.5021730152	-0.1256541409	-0.421666
C	 0.0168008764	 0.1029380263	-0.0295983797	 0.145206
C	 0.6365131049	-0.5594844329	-1.2860395606	-0.37526
C	-0.0569019179	-0.1744292949	-2.5109048515	 0.268396
N	-0.6112164221	 0.1126286443	-3.482870298	-0.303335
C	 0.7894652066	-0.3551383035	 1.2296862321	-0.096549
O	 2.0936901959	 0.2210407912	 1.097213204	-0.439323
C	 0.1324283208	 0.0693162948	 2.462716326	 0.299706
C	-0.3731008546	 0.403332906	 3.5002843541	-0.422392
H	 0.9198927843	 1.7859923692	 0.0824564749	 0.292774
H	-1.0269358054	-0.2104947964	 0.0643562522	 0.119918
H	 1.6905955723	-0.272544445	-1.3599762096	 0.165787
H	 0.6029653809	-1.651463741	-1.1930285836	 0.14644
H	 0.8625506691	-1.4537825116	 1.2251555496	 0.106486
H	 2.4870264181	 0.2832653398	 1.9732674913	 0.302816
H	-0.8351725327	 0.7056266283	 4.4081865898	 0.210994
60.995	88.4782	101.9309	172.6307	204.5573	266.682	276.79	319.2168	366.8254	397.9903	442.8414	461.0331	545.4579	592.6094	641.2799	689.8662	744.7573	872.1691	874.6399	947.8011	992.1193	1045.1425	1064.3019	1114.4916	1201.1248	1216.5661	1276.1286	1337.066	1348.3926	1360.6363	1400.9871	1438.6894	1465.5168	2238.5044	2367.2765	2983.7389	3045.3481	3077.2664	3097.7657	3499.2944	3763.9879	3833.5449
OC(CC#N)C(O)C#C	O[C@@H](CC#N)[C@@H](O)C#C	
InChI=1S/C6H7NO2/c1-2-5(8)6(9)3-4-7/h1,5-6,8-9H,3H2	InChI=1S/C6H7NO2/c1-2-5(8)6(9)3-4-7/h1,5-6,8-9H,3H2/t5-,6-/m0/s1
