15
gdb 10891	3.13036	1.94895	1.53951	4.5842	61.94	-0.228	-0.027	0.201	855.7856	0.117993	-399.765832	-399.758299	-399.757355	-399.79752	28.161	
C	-0.0299181505	 1.5216758196	 0.0616408285	-0.514494
C	 0.127579535	 0.0363038433	-0.0200066647	 0.307058
N	-0.8004188305	-0.9113133041	 0.6105964783	-0.384445
C	 0.6638222952	-0.9460248126	 0.9914016995	-0.25075
C	 1.2966189665	-1.7627753988	-0.1097887591	 0.4209
O	 2.061507941	-2.6800245597	-0.1457007323	-0.305846
C	 0.7035888024	-0.78519459	-1.1986815896	-0.016421
O	-0.1840726521	-1.251496524	-2.1664282815	-0.428056
H	 0.9019820154	 2.0289904308	-0.2071682841	 0.137213
H	-0.8089461531	 1.865654667	-0.6273712663	 0.144572
H	-0.309360436	 1.8371469399	 1.0727205745	 0.123635
H	-1.2805959397	-0.4308504036	 1.3720879518	 0.239464
H	 0.9656044334	-0.7994238351	 2.020770564	 0.118342
H	 1.525637677	-0.2737301509	-1.7113110008	 0.112712
H	-0.9240214539	-1.6409232918	-1.6813289483	 0.296115
94.8825	200.2216	209.5412	233.6753	275.1566	354.4894	480.9657	510.0442	559.4208	582.2495	674.7311	719.9067	810.4381	830.5806	910.3501	962.6798	990.3918	1022.7342	1057.6249	1103.0737	1118.238	1144.1016	1172.1054	1270.6239	1288.5725	1331.2533	1398.7059	1427.2187	1448.3542	1480.8919	1496.9223	1899.9463	3030.3417	3067.3117	3096.896	3104.2091	3203.1834	3465.9377	3764.8003
CC12NC1C(=O)C2O	C[C@]12N[C@H]1C(=O)[C@H]2O	
InChI=1S/C5H7NO2/c1-5-3(6-5)2(7)4(5)8/h3-4,6,8H,1H3	InChI=1S/C5H7NO2/c1-5-3(6-5)2(7)4(5)8/h3-4,6,8H,1H3/t3-,4+,5-/m0/s1
