21
gdb 12089	3.24664	1.55222	1.50914	1.1924	79.18	-0.2111	0.0901	0.3012	1003.1516	0.187451	-329.082093	-329.073308	-329.072364	-329.115371	33.643	
C	-1.7121062483	 0.7992583876	 1.2642405916	-0.417676
C	-0.8482697942	-0.3961078175	 0.9243311991	 0.0301
C	 0.2022844193	-0.3340767847	-0.1356865012	-0.260247
N	 0.5717930721	-0.5045260818	 1.2604941185	-0.136641
C	 1.3052600553	 0.4989485028	 2.0094583804	 0.388594
C	 1.6091850825	 1.8509573672	 1.3878080331	-0.475048
C	 1.0969718143	 0.4164320895	 3.5019990867	-0.296274
C	 2.3819664006	-0.0939378061	 2.8936680321	-0.289394
H	-1.2664499501	 1.7457941547	 0.9517016282	 0.12117
H	-2.6815362908	 0.7078094683	 0.7622904508	 0.119076
H	-1.9031015617	 0.8548669129	 2.3413635421	 0.125418
H	-1.3678398715	-1.3459035138	 1.0546255819	 0.084464
H	 0.4005106457	-1.1801347815	-0.7909036844	 0.107896
H	 0.3562322013	 0.6364050685	-0.6046514134	 0.105673
H	 0.7100795727	 2.4321543522	 1.1623162803	 0.117024
H	 2.2168036881	 2.4462334828	 2.0755654722	 0.115225
H	 2.1808182948	 1.7389153086	 0.4597882777	 0.121376
H	 1.1213715094	 1.3371608585	 4.0751429327	 0.106684
H	 0.388380372	-0.3209519289	 3.8613360172	 0.11385
H	 2.5135458314	-1.1673836377	 2.8359414264	 0.116085
H	 3.291050387	 0.4762769985	 3.0535046479	 0.102646
38.8611	137.6266	210.9431	227.8358	252.3029	313.2476	345.7058	363.2455	388.7348	452.9812	568.2181	617.1963	783.5117	787.6525	814.1124	855.3262	905.4449	929.1063	933.9687	961.0453	1034.9151	1037.1111	1054.6755	1066.564	1077.9868	1117.2733	1123.3817	1140.405	1159.4487	1189.3312	1192.9476	1258.1802	1325.7731	1366.9911	1400.8128	1416.6123	1420.0838	1456.1802	1486.7659	1488.6297	1496.509	1500.7833	1503.9175	1517.4163	3034.2408	3036.8942	3086.9062	3090.4627	3093.2524	3098.0734	3108.2678	3129.3357	3131.9172	3136.5409	3165.626	3216.9592	3233.3538
CC1CN1C1(C)CC1	C[C@H]1CN1C1(C)CC1	
InChI=1S/C7H13N/c1-6-5-8(6)7(2)3-4-7/h6H,3-5H2,1-2H3	InChI=1S/C7H13N/c1-6-5-8(6)7(2)3-4-7/h6H,3-5H2,1-2H3/t6-,8?/m0/s1
