21
gdb 95069	2.85493	1.58585	1.26591	1.7261	78.18	-0.2476	0.0803	0.3278	1077.3147	0.184332	-424.220918	-424.213141	-424.212197	-424.252668	31.802	
C	 0.2919300404	 1.5584255328	-0.0427649703	-0.399412
C	 0.0047770136	 0.0692979836	-0.0222624203	 0.218864
O	 0.6629131372	-0.5166015896	-1.1218834065	-0.25101
C	 0.1771495543	-1.7900527163	-1.5284517746	-0.09538
C	 0.256982328	-2.8624181928	-0.4370540465	-0.025483
C	-0.6967243865	-2.6016579584	 0.7646246593	-0.265163
C	 0.458062019	-1.8151549797	 1.4428253968	 0.134301
C	 1.4466542302	-2.6054136941	 0.5335815126	-0.232799
O	 0.4639645796	-0.4140686096	 1.2239424723	-0.274141
H	 1.3721843096	 1.7189890016	-0.0048190597	 0.13307
H	-0.1029049222	 2.0030267564	-0.9590156951	 0.119013
H	-0.1685993397	 2.0408439968	 0.8220970896	 0.124207
H	-1.0784140716	-0.120393899	-0.1172139795	 0.058421
H	-0.8588975762	-1.7017160223	-1.8951029137	 0.090777
H	 0.8087851129	-2.0715110772	-2.3768499929	 0.110008
H	 0.1869681354	-3.8498547412	-0.9029184655	 0.066546
H	-1.6493155396	-2.0951427433	 0.588729711	 0.100161
H	-0.8941490671	-3.5232794678	 1.3186935265	 0.102265
H	 0.5764817073	-1.9306296491	 2.5222898614	 0.077846
H	 1.7831014304	-3.5247786314	 1.0205820689	 0.094875
H	 2.3039854151	-2.0487082394	 0.153289506	 0.113036
145.379	202.1481	239.0709	301.8336	322.3468	353.1922	369.8886	432.4093	506.19	561.1914	648.767	773.4281	783.5695	805.7842	859.2834	882.3744	902.146	922.7003	950.0842	990.7188	1033.8308	1045.0017	1080.5254	1103.573	1117.7036	1133.4904	1135.8621	1165.0504	1183.1999	1223.9086	1251.537	1264.1965	1275.1167	1315.0676	1348.9988	1383.503	1387.4839	1396.8944	1409.5444	1425.0878	1462.6076	1481.7118	1486.8187	1492.3318	1499.6636	2950.0297	2972.3213	3055.3358	3057.2662	3060.8609	3068.3112	3079.3926	3087.9199	3110.7175	3135.5376	3138.7823	3140.691
CC1OCC2CC(C2)O1	C[C@H]1OC[C@@H]2C[C@@H](C2)O1	
InChI=1S/C7H12O2/c1-5-8-4-6-2-7(3-6)9-5/h5-7H,2-4H2,1H3	InChI=1S/C7H12O2/c1-5-8-4-6-2-7(3-6)9-5/h5-7H,2-4H2,1H3/t5-,6-,7+/m0/s1
