21
gdb 118546	1.67788	1.24165	0.8294	3.0163	76.86	-0.2581	0.0054	0.2635	1469.5394	0.179305	-461.37743	-461.366532	-461.365588	-461.41493	37.145	
C	-0.2864146529	 1.4954190862	 0.2975423099	-0.40046
C	 0.0590690092	 0.0055245748	 0.2707833438	-0.168665
C	 0.7229942284	-0.4480485464	-1.028021606	 0.094076
C	 1.115420577	-1.9312539379	-1.0193860416	-0.085645
O	 0.0890888239	-2.8068120072	-0.6206076722	-0.233063
C	-0.7982196098	-3.2050959118	-1.6529935298	-0.24299
O	-0.186720068	-0.1993963526	-2.1241515337	-0.192066
C	 0.2359039489	 0.5318534958	-3.1705048933	 0.170398
O	-0.440988031	 0.7395667034	-4.1323837246	-0.278195
H	 0.6065337561	 2.1174639582	 0.165296206	 0.1113
H	-0.9954365743	 1.7504009733	-0.4948434842	 0.137526
H	-0.7411931152	 1.7697199007	 1.253586491	 0.121459
H	 0.7445643296	-0.2381001822	 1.0915523469	 0.104129
H	-0.8361889409	-0.6031733491	 0.4278457119	 0.128316
H	 1.6408493601	 0.1350168953	-1.2022617055	 0.082275
H	 1.5075583781	-2.2063686543	-2.0115495083	 0.09331
H	 1.9272763339	-2.054057123	-0.2917052507	 0.1106
H	-1.4108840631	-2.3749640346	-2.0205147263	 0.136935
H	-0.2478518499	-3.6359379164	-2.5029416701	 0.107184
H	-1.4462429541	-3.9749514071	-1.2271281357	 0.126538
H	 1.2663772341	 0.9164476848	-3.0359509175	 0.077039
38.7767	56.1224	90.171	115.0569	148.1639	172.1621	212.249	233.6729	285.0199	311.9872	328.6713	441.2654	469.5523	591.0238	683.3944	790.1791	853.716	907.0824	961.1362	1005.6214	1011.5663	1045.9579	1063.5458	1129.8359	1143.0865	1178.8005	1185.4796	1204.3202	1227.1733	1280.4479	1307.7036	1335.0542	1374.089	1386.2235	1412.4323	1416.4443	1439.5185	1469.8477	1480.4526	1485.5543	1494.2953	1501.7417	1510.1638	1515.2722	1861.9616	2939.8744	2977.1193	2991.895	2995.2037	3035.7612	3041.5672	3055.9916	3073.3996	3088.6348	3107.9647	3121.1109	3121.4462
CCC(COC)OC=O	CC[C@@H](COC)OC=O	
InChI=1S/C6H12O3/c1-3-6(4-8-2)9-5-7/h5-6H,3-4H2,1-2H3	InChI=1S/C6H12O3/c1-3-6(4-8-2)9-5-7/h5-6H,3-4H2,1-2H3/t6-/m0/s1
