16
gdb 42793	2.40626	1.74376	1.38682	3.5326	69.39	-0.2442	-0.0465	0.1977	967.6625	0.125793	-437.898243	-437.890972	-437.890028	-437.930193	27.998	
O	 0.0062948364	 0.0153985957	-0.0918688388	-0.298416
C	-0.0282320836	 1.2004269047	 0.0328881898	 0.422691
C	-1.1010730666	 2.2972983702	-0.0226693453	-0.131478
C	-1.3797561452	 2.8486181501	 1.3870753872	-0.219733
C	-0.0944622518	 3.4737933579	 1.9879678219	-0.312221
C	 1.1842989832	 2.8459160396	 1.4369147568	 0.43482
O	 2.2080201538	 2.7189595804	 2.0584685437	-0.309124
C	 1.0192290925	 2.3508492951	 0.0015962542	-0.247724
N	-0.0543303101	 3.1833808341	-0.6625622466	-0.322373
H	-2.0080023364	 2.1118778395	-0.6015897046	 0.101085
H	-2.1653355833	 3.6069801781	 1.3305089292	 0.121267
H	-1.7558070755	 2.0370788564	 2.0187808454	 0.126837
H	-0.0491560745	 4.5310393305	 1.7032519604	 0.151023
H	-0.0719956405	 3.4273193938	 3.0781203195	 0.130717
H	 1.971237444	 2.2176930626	-0.5112025333	 0.112599
H	-0.0276130624	 2.9800859911	-1.6600252097	 0.240031
101.9214	116.3581	196.3906	370.4423	424.5776	454.4762	470.7552	478.7946	566.7797	661.8749	705.5499	785.4489	828.8334	863.3625	874.7967	922.5488	970.6038	1011.3663	1043.4184	1065.545	1074.202	1104.4252	1123.0491	1183.5045	1213.4229	1237.3979	1287.6043	1303.4422	1333.069	1360.376	1366.2847	1448.2618	1492.7608	1826.8251	1898.0465	3051.4419	3054.6998	3094.6565	3103.5532	3124.2132	3135.9134	3485.9042
O=C1C2CCC(=O)C1N2	O=C1[C@H]2CCC(=O)[C@@H]1N2	
InChI=1S/C6H7NO2/c8-4-2-1-3-6(9)5(4)7-3/h3,5,7H,1-2H2	InChI=1S/C6H7NO2/c8-4-2-1-3-6(9)5(4)7-3/h3,5,7H,1-2H2/t3-,5+/m1/s1
