20
gdb 120583	3.14906	0.86151	0.83597	5.4911	81.77	-0.2332	0.0324	0.2656	1500.9245	0.170797	-399.314479	-399.304552	-399.303608	-399.349654	36.457	
C	-0.1930419094	 1.4332559179	-0.1211165059	-0.395387
C	-0.2787298045	-0.0743459284	-0.3304135169	-0.113655
N	-1.335914445	-0.6599935923	 0.5009292438	-0.300078
C	-1.4501671154	-2.0811759607	 0.3844609635	-0.009643
C	-2.6467969165	-2.75722786	 0.9850214233	-0.35938
C	-2.5612650513	-2.5987420077	-0.5370686426	 0.159629
N	-3.3408332296	-1.6212458709	-1.2456727074	-0.57074
C	-2.2680615742	-3.7954345219	-1.292937141	 0.282376
N	-2.0344321979	-4.7678934431	-1.8744303701	-0.349221
H	 0.5816817644	 1.8664983419	-0.759632276	 0.125569
H	-1.1467407018	 1.9141958187	-0.3570230756	 0.127558
H	 0.0603438727	 1.6750096734	 0.9177976543	 0.114411
H	-0.5225332531	-0.2972319165	-1.3752672432	 0.12949
H	 0.7031375073	-0.5382135115	-0.130384949	 0.091572
H	-1.2071301514	-0.3970642867	 1.4730538672	 0.225762
H	-0.5245507274	-2.659801285	 0.3601096403	 0.103404
H	-2.5173898692	-3.7418966134	 1.418931739	 0.136564
H	-3.3834591643	-2.1245837466	 1.4683623187	 0.122555
H	-4.3319923345	-1.8291466886	-1.1828653223	 0.237078
H	-3.1714478588	-0.7177652185	-0.8098818001	 0.242137
70.6712	81.6388	92.6717	172.6321	224.6685	241.5949	286.6762	321.352	362.107	371.6681	455.1756	530.5709	573.4907	589.2022	688.0799	752.7759	802.8412	819.3089	884.9809	901.0898	913.6325	938.9073	1041.1013	1053.9666	1065.1764	1122.2514	1150.722	1178.4466	1198.0666	1220.0598	1294.7917	1309.1129	1321.4957	1376.5386	1409.8643	1423.8627	1461.604	1478.5466	1495.8606	1498.0488	1523.5115	1641.8261	2350.3004	2950.3064	3034.0673	3059.6525	3078.3937	3102.8137	3122.2989	3137.8829	3233.9718	3480.6116	3511.8834	3568.5797
CCNC1CC1(N)C#N	CCN[C@H]1C[C@]1(N)C#N	
InChI=1S/C6H11N3/c1-2-9-5-3-6(5,8)4-7/h5,9H,2-3,8H2,1H3	InChI=1S/C6H11N3/c1-2-9-5-3-6(5,8)4-7/h5,9H,2-3,8H2,1H3/t5-,6-/m0/s1
