16
gdb 47887	2.34761	1.71798	1.15316	6.35	66.08	-0.2509	-0.0425	0.2083	1052.8269	0.125231	-475.068793	-475.060574	-475.05963	-475.102515	29.677	
O	 0.0240050282	-0.047506189	-0.1410363185	-0.348247
C	-0.0023094631	 1.1622446466	-0.0637349641	 0.340755
N	-1.1456922494	 1.8959201766	 0.0151849567	-0.314842
C	-1.2577424779	 3.3510216285	 0.0159288318	-0.182395
C	-0.5911222506	 4.0247820653	 1.2232607382	-0.196033
C	 0.9334512415	 4.0130150227	 1.1654101374	-0.088957
O	 1.4902027117	 2.6903074229	 1.1243058068	-0.241728
C	 1.3156836524	 1.9619495421	-0.0248450599	 0.301687
O	 2.1627034389	 1.8561136338	-0.8578322392	-0.270947
H	-1.990779144	 1.3455073221	-0.0292257519	 0.25711
H	-0.8533297442	 3.7708457551	-0.9164182143	 0.127932
H	-2.326049553	 3.5779510525	 0.0186406867	 0.126922
H	-0.9129294425	 5.0726367995	 1.2621365295	 0.113002
H	-0.9329212663	 3.5383095448	 2.1429441738	 0.123859
H	 1.2945816339	 4.5790024404	 0.2958410631	 0.120159
H	 1.3565373742	 4.4681766463	 2.063178104	 0.131725
45.8655	71.4002	187.4103	249.5371	283.433	355.8227	359.8478	421.1023	496.1896	537.6515	621.7921	706.8905	737.4736	824.3525	845.3641	906.6769	928.7301	987.4147	1068.7493	1093.3924	1114.1264	1158.9305	1241.5456	1271.9723	1310.2023	1360.0169	1391.9182	1402.1065	1417.563	1455.4604	1470.1912	1498.9214	1507.1354	1793.9306	1860.6029	3006.3611	3019.4856	3038.512	3090.3904	3103.981	3113.5363	3614.1319
O=C1NCCCOC1=O	O=C1NCCCOC1=O	
InChI=1S/C5H7NO3/c7-4-5(8)9-3-1-2-6-4/h1-3H2,(H,6,7)	InChI=1S/C5H7NO3/c7-4-5(8)9-3-1-2-6-4/h1-3H2,(H,6,7)
