17
gdb 85583	2.76684	1.42392	1.07484	1.8908	68.37	-0.2598	-0.0392	0.2206	1113.55	0.135375	-459.027945	-459.019551	-459.018607	-459.061485	30.937	
C	 0.6240426676	 1.3200880864	-0.2945663741	-0.401013
C	-0.0401015541	 0.0133273252	 0.1467202155	 0.028612
O	-0.1144018825	-0.921580889	-0.9457753255	-0.237164
C	 0.892015789	-1.7931803339	-1.222830355	 0.414164
O	 0.8788184485	-2.398897904	-2.2570394942	-0.317123
C	 1.9429121352	-1.9677826518	-0.1403869472	-0.365394
C	 1.3211359984	-1.8737820991	 1.2598973515	-0.319865
C	 0.6182003445	-0.5435488527	 1.4156532179	 0.369241
O	 0.570163096	 0.0852794789	 2.4443024569	-0.305525
H	 1.6712091737	 1.1634235944	-0.5718798885	 0.126154
H	 0.0962439947	 1.729641909	-1.1587385422	 0.14224
H	 0.5870279399	 2.0382384315	 0.5275879403	 0.152058
H	-1.0859286863	 0.2144022348	 0.3989564608	 0.135172
H	 2.4305389013	-2.9279574047	-0.3133583284	 0.149032
H	 2.7096694859	-1.1934051221	-0.2681776427	 0.142342
H	 0.5723683315	-2.6680869162	 1.3834316845	 0.147471
H	 2.0543465968	-1.9890362569	 2.0609816002	 0.139598
53.599	101.3515	174.9952	225.2631	247.6964	367.9608	416.2841	427.4334	436.1971	509.3855	616.622	626.1013	701.0749	755.3939	785.8873	882.5768	943.9981	982.5092	1004.411	1053.2728	1103.5943	1127.6807	1150.9933	1169.0356	1214.9979	1278.4761	1311.241	1326.1214	1349.6711	1381.2275	1398.5573	1459.0015	1472.2075	1490.7484	1494.3098	1826.2736	1856.5617	3028.321	3043.7932	3048.9662	3069.2132	3113.4071	3124.128	3127.6141	3144.4588
CC1OC(=O)CCC1=O	C[C@H]1OC(=O)CCC1=O	
InChI=1S/C6H8O3/c1-4-5(7)2-3-6(8)9-4/h4H,2-3H2,1H3	InChI=1S/C6H8O3/c1-4-5(7)2-3-6(8)9-4/h4H,2-3H2,1H3/t4-/m1/s1
