20
gdb 68164	3.45996	1.39221	1.18994	4.0242	78.92	-0.235	0.0381	0.2731	1092.9786	0.173445	-403.192211	-403.18431	-403.183366	-403.224182	31.772	
C	-0.0703952294	 1.5556588507	 0.0287778404	-0.481124
C	 0.0282604964	 0.0406621706	 0.0139092921	 0.312142
C	 1.0868837052	-0.6490988332	-0.8988593663	-0.260022
C	 1.1409485063	-1.7730489299	 0.1756851403	-0.126767
C	 0.7062340482	-0.6945695446	 1.2094848762	-0.260023
C	-0.0207715862	-2.7282040179	-0.0545535134	 0.399977
O	 0.0721124979	-3.9396923399	-0.0639621911	-0.388516
N	-1.2046731163	-2.0659512803	-0.2542695097	-0.307944
C	-1.3362431741	-0.6152274024	-0.2466240333	-0.190238
H	 0.9097052993	 2.0053950171	 0.2154316888	 0.117267
H	-0.4387799414	 1.9415163958	-0.9290118046	 0.118182
H	-0.7532197111	 1.9039456823	 0.8126160275	 0.118182
H	 0.7955700746	-0.9221031704	-1.9170732899	 0.103471
H	 2.0190672906	-0.0781020829	-0.9256658105	 0.100506
H	 2.0580594752	-2.3386305076	 0.3290653647	 0.085511
H	 1.5659221089	-0.1322458432	 1.5842511518	 0.100503
H	 0.0794606604	-1.0076476627	 2.0493027009	 0.103464
H	-2.0157728021	-2.6441960295	-0.4130524468	 0.245052
H	-2.0475664396	-0.3023639448	 0.5314675839	 0.105185
H	-1.7330784328	-0.2646769071	-1.2104317311	 0.10519
109.2133	200.7178	224.8515	274.5187	322.5593	382.6797	425.0384	426.4379	465.1472	541.0802	624.8923	678.4562	752.5018	774.7227	854.7402	867.912	901.9546	913.989	949.9204	976.2635	1018.2229	1023.5103	1054.7784	1089.6918	1122.0437	1151.6062	1199.2116	1212.5814	1248.1409	1248.6302	1282.0607	1289.8424	1303.9583	1356.1829	1376.6918	1415.3151	1472.6231	1477.1936	1492.532	1495.9773	1511.6779	1527.2238	1805.902	2987.9278	3016.1115	3024.1575	3048.1313	3053.6344	3086.7279	3100.8957	3106.209	3108.2368	3135.3116	3623.056
CC12CC(C1)C(=O)NC2	C[C@@]12C[C@@H](C1)C(=O)NC2	
InChI=1S/C7H11NO/c1-7-2-5(3-7)6(9)8-4-7/h5H,2-4H2,1H3,(H,8,9)	InChI=1S/C7H11NO/c1-7-2-5(3-7)6(9)8-4-7/h5H,2-4H2,1H3,(H,8,9)/t5-,7+
