17
gdb 82563	2.81193	1.80398	1.38605	2.4671	67.63	-0.241	0.0612	0.3022	944.0085	0.136617	-458.876235	-458.869229	-458.868285	-458.90734	28.434	
O	-0.0034031437	 1.3892574849	-0.1073037038	-0.435099
C	 0.0364355819	-0.0167761348	 0.0146241624	 0.053501
C	 0.5429769937	-0.5925963665	 1.3925546998	 0.013127
C	-0.6045013877	-0.4357601497	 2.4541357422	-0.336955
C	-1.2155855493	-1.3929797638	 1.421621164	 0.354212
C	-2.2909426447	-2.2985311155	 0.8222310197	-0.204442
O	-2.0178564637	-1.7009052863	-0.4849655027	-0.310441
C	-1.4031433887	-0.5539545258	 0.1660143182	 0.141076
O	 0.1161077011	-1.9643961134	 1.2051422749	-0.30578
H	 0.8965656988	 1.7101948561	-0.2194106821	 0.289048
H	 0.6013672919	-0.4974105779	-0.7921469075	 0.098244
H	 1.5948931109	-0.4725615754	 1.6568650249	 0.081336
H	-0.3109216284	-0.8977037134	 3.3971001075	 0.118537
H	-1.0794686152	 0.5369323451	 2.5985866931	 0.115564
H	-2.0822487277	-3.371131214	 0.8421889225	 0.127523
H	-3.3155747641	-2.0930477137	 1.1538436579	 0.110605
H	-2.110172425	 0.2817516843	 0.2211101691	 0.089947
154.2186	263.7896	270.652	302.1135	330.8356	400.2498	505.0992	534.8513	586.0785	657.4403	783.3875	813.9818	857.9058	874.7431	918.0858	946.2037	967.0251	980.0727	991.4404	1033.9692	1048.6268	1064.3339	1124.3373	1145.0581	1170.1436	1189.3294	1204.8297	1237.9684	1246.5439	1264.3101	1292.0664	1311.7645	1341.3622	1356.8769	1415.1968	1483.4836	1496.1055	3032.3044	3046.2272	3049.6803	3077.1293	3108.3225	3111.7984	3152.0037	3826.1275
OC1C2CC3(COC13)O2	O[C@H]1[C@H]2C[C@]3(CO[C@H]13)O2	
InChI=1S/C6H8O3/c7-4-3-1-6(9-3)2-8-5(4)6/h3-5,7H,1-2H2	InChI=1S/C6H8O3/c7-4-3-1-6(9-3)2-8-5(4)6/h3-5,7H,1-2H2/t3-,4+,5-,6-/m1/s1
