18
gdb 56218	3.45431	1.09951	0.97366	5.7825	68.71	-0.2492	0.0218	0.271	1231.1626	0.147844	-476.214923	-476.20639	-476.205446	-476.2495	31.234	
O	-1.240250985	-0.3321779281	-0.1994986602	-0.366259
C	-0.6056770125	 0.8465579198	-0.1777945042	 0.390402
O	 0.5303955125	 0.9737313374	-0.5478738277	-0.326801
C	-1.4050156162	 2.0463697548	 0.3546260883	-0.229167
O	-2.6588796783	 1.689899085	 0.8975958564	-0.262797
C	-3.8069152387	 1.9088108849	 0.0972693465	 0.123829
C	-3.8097986844	 1.1550141863	-1.2602402348	-0.218339
N	-4.292841416	-0.0345856317	-0.5176063034	-0.313218
H	-4.9493890826	-0.6360211747	-1.003485238	 0.230766
H	-2.1685494641	-0.2429576416	 0.0934149197	 0.322365
C	-4.8524193402	 0.8594426186	 0.5304390717	-0.174423
H	-0.8063934664	 2.5008504543	 1.1500430723	 0.150332
H	-1.4900479385	 2.7843769959	-0.4527524168	 0.132273
H	-4.0822109809	 2.9684782923	 0.0894055511	 0.083736
H	-4.555335442	 1.599469031	-1.9347519566	 0.105064
H	-2.8720882398	 1.0187458537	-1.8046038059	 0.128186
H	-4.7680938062	 0.4893213246	 1.5549374582	 0.123179
H	-5.8782962505	 1.1974213474	 0.3323600734	 0.100872
30.6181	72.4189	118.063	238.022	264.8789	299.7987	378.0552	446.3897	531.1796	564.1709	638.5227	698.8519	739.5443	830.3399	853.0547	862.2296	941.2329	962.7568	994.14	1014.1647	1038.3934	1063.5319	1111.0406	1127.7123	1168.9612	1212.1136	1226.0437	1226.3306	1270.686	1288.6578	1336.6543	1356.7086	1366.0022	1370.1133	1386.1916	1465.8235	1494.8301	1523.5913	1862.8061	3005.3605	3016.9742	3034.8683	3057.1285	3092.9312	3098.0242	3104.3521	3529.6905	3582.1745
[O-]C(=O)COC1C[NH2+]C1	OC(=O)COC1CNC1	
InChI=1S/C5H9NO3/c7-5(8)3-9-4-1-6-2-4/h4,6H,1-3H2,(H,7,8)	InChI=1S/C5H9NO3/c7-5(8)3-9-4-1-6-2-4/h4,6H,1-3H2,(H,7,8)
