17
gdb 50045	3.79716	1.00574	0.92431	1.7073	69.77	-0.2608	-0.045	0.2158	1269.4996	0.13495	-458.94928	-458.941102	-458.940158	-458.982866	29.816	
O	-0.6222051002	 0.7406616609	 0.807874807	-0.245919
C	 0.1919993837	 0.9570938589	-0.0526302976	 0.146303
C	 1.2374313687	 2.0188550576	 0.0464143856	-0.140892
O	 2.3809746814	 1.8377864215	-0.804255204	-0.268921
C	 1.5042716877	 2.912180777	-1.1031032107	 0.394092
C	 0.7794364604	 2.9130132776	-2.4529724509	-0.331364
C	 0.8960499721	 4.3879876006	-2.8863824051	-0.082656
O	 2.0445653734	 4.8937258711	-2.2153791248	-0.239801
C	 2.0188038751	 4.3393689607	-0.9135928513	-0.150313
H	 0.2323012974	 0.3759462999	-0.9999478106	 0.091673
H	 1.4409699568	 2.3774341506	 1.0553178537	 0.115566
H	 1.3184136794	 2.2510612637	-3.135915141	 0.137002
H	-0.2574678766	 2.5763491841	-2.392641406	 0.121551
H	 1.049316979	 4.5196089	-3.9591775476	 0.121918
H	-0.0024494487	 4.9522846553	-2.5892987957	 0.098397
H	 1.3387478007	 4.9070672467	-0.2565332821	 0.100849
H	 3.0265037997	 4.3593280637	-0.4930953689	 0.132515
56.5165	102.7654	136.6612	231.1249	267.1715	363.868	394.6274	419.161	492.5955	548.989	658.4132	770.8151	824.157	874.5377	948.3687	949.9826	976.4593	978.3346	1022.4764	1076.9469	1102.9431	1117.8975	1128.7017	1199.9971	1218.6126	1230.5563	1267.6959	1278.5701	1300.8328	1345.0889	1382.0187	1403.891	1463.0958	1480.6613	1496.5553	1518.5962	1825.5611	2897.8388	2966.1149	2979.1211	3070.2774	3108.7784	3111.675	3123.2051	3123.8404
O=CC1OC11CCOC1	O=C[C@H]1O[C@]21CCOC2	
InChI=1S/C6H8O3/c7-3-5-6(9-5)1-2-8-4-6/h3,5H,1-2,4H2	InChI=1S/C6H8O3/c7-3-5-6(9-5)1-2-8-4-6/h3,5H,1-2,4H2/t5-,6-/m1/s1
