13
gdb 20319	6.23685	1.4105	1.15847	2.8056	63.47	-0.2603	0.0109	0.2712	955.095	0.097105	-357.636682	-357.62973	-357.628786	-357.668656	24.953	
C	-0.3923573639	-0.6902873947	-1.0550326162	-0.426388
C	-0.1121911882	 0.143965506	-0.2369194528	 0.283508
C	 0.2562225066	 1.1648857022	 0.737970935	-0.477436
C	 1.529575736	 1.883687997	 0.390130771	 0.403606
N	 2.0944432247	 2.8501458367	 1.0925962074	-0.325503
C	 3.2017193177	 3.1480608205	 0.357068241	 0.023488
N	 3.3579831978	 2.434573614	-0.7459767688	-0.215639
N	 2.2709644869	 1.6275604638	-0.7046287554	-0.229949
H	-0.6614628402	-1.4339989409	-1.7643557972	 0.210123
H	-0.5485405284	 1.9041201557	 0.8339114495	 0.171259
H	 0.3678994821	 0.7154112682	 1.7323655994	 0.171257
H	 3.9105286683	 3.9106936034	 0.6431242457	 0.127646
H	 2.0989567906	 0.9477091781	-1.4282267585	 0.284028
40.4943	124.8209	248.8994	324.2008	324.6622	482.3125	595.6553	631.6768	671.1545	697.4263	707.8423	734.3916	912.1147	951.2643	966.8947	984.6073	1050.6481	1128.6234	1207.9176	1212.4929	1279.454	1305.3708	1310.5397	1427.4098	1456.3831	1505.515	1581.923	2243.3816	3033.9848	3061.2189	3261.9407	3502.1062	3656.749
C#CCC1=NC=NN1	C#CCc1ncn[nH]1	
InChI=1S/C5H5N3/c1-2-3-5-6-4-7-8-5/h1,4H,3H2,(H,6,7,8)	InChI=1S/C5H5N3/c1-2-3-5-6-4-7-8-5/h1,4H,3H2,(H,6,7,8)
