20
gdb 100148	3.73146	0.8033	0.77946	4.1822	72.96	-0.2466	0.0362	0.2828	1515.0544	0.168622	-477.446314	-477.435668	-477.434723	-477.482592	38.161	
C	 0.0629803315	 1.453202997	-0.3417974345	-0.416745
C	 0.0077457171	-0.0559784882	-0.0704941298	 0.343703
O	 0.6712916181	-0.3638147915	 1.1587585573	-0.487373
C	-1.4441909463	-0.5411452478	 0.0337458489	-0.114236
O	-1.9954831095	 0.0800383141	 1.1921000322	-0.434934
C	 0.7493376784	-0.8654967643	-1.1437950615	-0.170657
N	 2.1693977375	-0.57588632	-1.1299889399	-0.273657
C	 2.8743805624	-0.2391441133	-2.2398179555	 0.153289
O	 2.4235370845	-0.166936948	-3.3646665204	-0.329513
H	 1.100135296	 1.7943211527	-0.3546503896	 0.121629
H	-0.3937018634	 1.6980528744	-1.3062563805	 0.118101
H	-0.4763533378	 1.9943205903	 0.4395700805	 0.127246
H	 0.0655408875	-0.0934537343	 1.8603849187	 0.288647
H	-2.0072856291	-0.2704052092	-0.8712100751	 0.099055
H	-1.4524862926	-1.6351496058	 0.1372219539	 0.095655
H	-2.8224835278	-0.3561751683	 1.413477699	 0.297575
H	 0.5837100809	-1.9342922189	-0.9556774843	 0.106126
H	 0.3831499585	-0.6307890116	-2.1454841887	 0.142747
H	 2.6267075339	-0.5822174358	-0.2315717403	 0.260905
H	 3.93720223	-0.0344805814	-2.0015138602	 0.072435
35.2032	70.7275	130.1274	158.1071	225.1287	235.1276	245.334	261.6358	310.5661	344.5271	388.6861	410.6852	439.2662	455.2334	588.6518	627.3343	757.9771	793.2723	911.8401	928.3953	969.0001	977.4672	1033.9254	1044.0658	1072.0927	1145.1991	1170.8944	1196.9777	1213.9949	1251.2921	1256.7243	1317.2904	1370.7045	1397.2383	1419.8279	1428.989	1448.7679	1485.4271	1492.3109	1499.7153	1511.8589	1529.3438	1802.2313	2934.7123	2990.0184	3017.812	3034.1451	3047.0117	3117.291	3122.3374	3137.7844	3637.3714	3779.139	3845.8849
CC(O)(CO)CNC=O	C[C@@](O)(CO)CNC=O	
InChI=1S/C5H11NO3/c1-5(9,3-7)2-6-4-8/h4,7,9H,2-3H2,1H3,(H,6,8)	InChI=1S/C5H11NO3/c1-5(9,3-7)2-6-4-8/h4,7,9H,2-3H2,1H3,(H,6,8)/t5-/m0/s1
