19
gdb 64298	2.38614	1.50286	1.15956	1.0533	86.6	-0.2285	-0.0241	0.2044	1137.9171	0.156417	-385.876856	-385.867407	-385.866462	-385.910948	35.512	
C	 0.1283947671	 1.4778622072	-0.1579037285	-0.409963
C	-0.0624957103	-0.0306750058	 0.0395413867	 0.25122
C	-1.5478201687	-0.392018069	 0.1595256975	-0.409966
O	 0.4935984371	-0.7215730079	-1.0947854373	-0.305033
C	 1.5425852085	-1.5969637171	-0.7071909813	-0.125296
C	 1.6559985233	-1.4464641264	 0.7781397318	-0.238331
C	 0.754657697	-0.5632554031	 1.2180164541	 0.157427
C	 0.5306411265	-0.1368066843	 2.5461767856	 0.268447
C	 0.3007530614	 0.2585436669	 3.6613734835	-0.436918
H	 1.1892730198	 1.7167072504	-0.2707314205	 0.116928
H	-0.3986642703	 1.8047581112	-1.0589380466	 0.121549
H	-0.2645624794	 2.0338116523	 0.698544518	 0.122972
H	-2.082392453	-0.0724656392	-0.7397169712	 0.121534
H	-1.6698432514	-1.4728369065	 0.2699006809	 0.116928
H	-1.9975579852	 0.099627645	 1.0272968393	 0.122985
H	 1.3046000758	-2.6316473488	-1.0036029149	 0.109457
H	 2.4766868765	-1.3253031037	-1.2255590903	 0.10948
H	 2.3714993554	-1.9850866096	 1.385497729	 0.112026
H	 0.11016756	 0.5970965285	 4.6495583144	 0.194553
52.9504	136.1369	138.4058	207.8785	243.6695	248.2826	329.5256	353.3032	355.2009	438.613	526.5295	544.295	591.7697	637.7561	656.2538	677.3101	771.435	836.5175	850.4535	926.4713	949.9437	972.7556	1007.9211	1040.8215	1091.1907	1138.7213	1181.2531	1197.09	1213.1373	1249.0495	1307.4749	1376.9315	1390.1359	1409.2333	1475.4441	1479.7443	1493.6804	1502.4381	1518.2162	1684.6657	2221.8759	2966.311	2978.6133	3038.9835	3043.764	3115.1088	3120.305	3121.3416	3123.0681	3224.6603	3502.679
CC1(C)OCC=C1C#C	CC1(C)OCC=C1C#C	
InChI=1S/C8H10O/c1-4-7-5-6-9-8(7,2)3/h1,5H,6H2,2-3H3	InChI=1S/C8H10O/c1-4-7-5-6-9-8(7,2)3/h1,5H,6H2,2-3H3
