20
gdb 112833	2.69601	1.33647	1.04144	3.7266	74.92	-0.2355	0.068	0.3036	1204.3053	0.17172	-440.262551	-440.253912	-440.252968	-440.295905	33.079	
C	 0.2522208507	 1.4954773967	-0.2663941652	-0.403196
C	 0.0656027007	 0.0024823762	-0.0470657664	 0.146011
O	 0.6736248537	-0.6981954487	-1.1386473383	-0.305514
C	 1.2076897514	-1.9565316859	-0.7090225939	 0.112796
C	 2.4430309516	-2.2241790406	-1.5614071035	-0.06947
O	 2.1295757488	-2.2034882569	-2.9412350753	-0.427597
C	 1.4436564733	-1.7955832446	 0.7802974848	-0.085721
N	 2.202240784	-0.5653357714	 1.1006373735	-0.330915
C	 0.728891006	-0.5710571155	 1.1949559989	-0.068786
H	 1.3159269732	 1.7425315291	-0.2350233064	 0.140662
H	-0.1524728572	 1.7901670419	-1.2384390171	 0.123396
H	-0.2707397578	 2.0649397597	 0.5087501072	 0.109472
H	-1.0091441922	-0.2424109814	-0.0021657201	 0.068941
H	 0.4663374523	-2.7555285969	-0.8741776264	 0.072633
H	 3.2089921537	-1.4797481971	-1.3026456939	 0.106374
H	 2.8395380347	-3.2213409907	-1.3399486315	 0.097168
H	 1.6699064209	-1.3689028836	-3.0905946071	 0.291222
H	 1.5293992533	-2.6701437333	 1.4159733458	 0.095168
H	 2.5968714172	-0.6522354526	 2.0339462307	 0.234116
H	 0.2440302517	-0.4733104642	 2.1605436241	 0.093241
87.6538	121.6034	154.3986	214.8869	231.0113	307.2728	375.3549	440.9149	451.2731	502.0528	539.6439	646.3582	751.9197	806.232	822.0234	868.5829	892.3241	903.5241	951.9976	1006.1608	1034.0779	1053.1548	1073.1978	1097.4556	1113.0685	1114.4209	1135.4314	1153.3668	1173.2035	1231.021	1254.8374	1309.2017	1330.7778	1355.4027	1367.237	1385.5637	1395.4289	1406.6647	1435.3422	1440.1087	1486.2417	1498.5461	1501.3613	2958.9219	2973.0965	3011.3304	3044.4089	3073.1058	3114.2029	3135.5059	3166.1958	3177.226	3503.8474	3798.1826
CC1OC(CO)C2NC12	C[C@H]1O[C@@H](CO)[C@H]2N[C@@H]12	
InChI=1S/C6H11NO2/c1-3-5-6(7-5)4(2-8)9-3/h3-8H,2H2,1H3	InChI=1S/C6H11NO2/c1-3-5-6(7-5)4(2-8)9-3/h3-8H,2H2,1H3/t3-,4+,5+,6-/m1/s1
