16
gdb 128073	4.44449	1.05287	0.85582	4.2413	73.91	-0.2387	-0.0124	0.2263	1302.3549	0.126626	-434.125002	-434.116588	-434.115644	-434.158856	29.908	
C	-0.0170311834	 1.4018352799	 0.1023480723	-0.334033
N	 0.1032991214	-0.0330229357	-0.0321466276	-0.324035
C	 0.5603163731	-0.6281378011	-1.1667066238	 0.338317
O	 0.9101731987	-0.0261112109	-2.1707185324	-0.392844
C	 0.6077445868	-2.1149292583	-1.1017895323	 0.266935
N	 0.2304136253	-2.7932853852	-0.0152493917	-0.314714
N	 0.4168846739	-4.0788345097	-0.3444875431	-0.180372
C	 0.9003005224	-4.2422183226	-1.6041895414	-0.019287
C	 1.0384575249	-2.9794071434	-2.1320287394	-0.266337
H	 0.6078936302	 1.7819153011	 0.918910544	 0.12282
H	 0.3161377828	 1.8466891939	-0.8363037466	 0.167959
H	-1.0546038507	 1.7014866683	 0.2906214459	 0.122818
H	-0.1555223584	-0.6391594223	 0.7307284883	 0.259445
H	 0.1970843045	-4.7933337012	 0.3293615037	 0.279474
H	 1.1003157684	-5.2216721167	-2.0085349939	 0.141542
H	 1.39279749	-2.693940376	-3.1073156222	 0.132311
72.6256	90.2999	109.8651	156.2395	233.6484	314.3473	394.8459	500.8275	525.1495	545.9553	641.7998	690.3887	774.8949	810.3617	812.8832	881.2816	946.2903	971.3743	1036.8132	1077.8814	1104.0347	1153.9943	1175.7008	1211.3099	1226.5351	1320.1535	1398.6667	1438.9579	1466.7041	1484.63	1499.6341	1503.5344	1559.8127	1583.0087	1768.7019	3021.8035	3070.5187	3149.126	3264.7621	3296.1038	3629.8183	3667.2487
CNC(=O)C1=NNC=C1	CNC(=O)c1n[nH]cc1	
InChI=1S/C5H7N3O/c1-6-5(9)4-2-3-7-8-4/h2-3H,1H3,(H,6,9)(H,7,8)	InChI=1S/C5H7N3O/c1-6-5(9)4-2-3-7-8-4/h2-3H,1H3,(H,6,9)(H,7,8)
