13
gdb 130960	3.48918	1.10386	0.88862	2.9229	60.16	-0.2674	-0.0605	0.2068	1204.7519	0.088231	-489.899427	-489.891594	-489.89065	-489.933393	26.83	
O	 0.0820108051	-0.115621744	 0.2907506007	-0.213013
C	 0.0491894041	 0.9864608838	-0.1811761702	 0.148595
C	 1.2086743331	 1.974689343	-0.0695218547	-0.265617
N	 1.2671633354	 2.9022076841	-1.177188744	-0.151188
C	 1.6433695162	 2.6920203917	-2.4759815108	 0.069789
N	 1.5882466919	 3.7571180517	-3.1989199682	-0.118931
O	 1.136491417	 4.7701247533	-2.3143495115	-0.234363
C	 0.9397447987	 4.254143896	-1.0661061738	 0.525528
O	 0.5675829779	 4.852181451	-0.0965164221	-0.392943
H	-0.838358591	 1.3803072346	-0.7247585826	 0.106153
H	 1.0475890117	 2.586496224	 0.8272101407	 0.188597
H	 2.1470809941	 1.4267171177	 0.0500577741	 0.157805
H	 1.9605240557	 1.7351626431	-2.8644781878	 0.179587
46.7835	73.4185	110.0074	240.1861	259.4406	347.0487	421.3576	553.9984	613.4643	680.0976	765.2855	769.179	814.4157	884.5682	887.9666	944.0605	1039.7038	1067.0647	1123.4943	1197.1584	1233.0825	1323.5788	1356.6785	1410.8166	1424.8263	1452.133	1645.9046	1848.3259	1886.7681	2894.5483	3046.3543	3110.4488	3256.8671
O=CCN1C=NOC1=O	O=CCn1cnoc1=O	
InChI=1S/C4H4N2O3/c7-2-1-6-3-5-9-4(6)8/h2-3H,1H2	InChI=1S/C4H4N2O3/c7-2-1-6-3-5-9-4(6)8/h2-3H,1H2
