21
gdb 87239	3.36807	0.79318	0.76726	5.1445	84.4	-0.2381	0.0401	0.2781	1580.8438	0.180938	-383.263385	-383.253165	-383.252221	-383.299065	36.864	
C	-0.3458605303	 1.3647076552	 0.1098699933	-0.317735
N	-0.0306150412	-0.0492576144	 0.252841581	-0.106523
C	 1.2774653833	-0.5063065109	-0.2050598268	-0.303036
C	 0.9416242667	-0.5121383275	 1.251466679	 0.326122
C	 1.6557465479	 0.459001399	 2.1759479789	-0.471745
C	 0.531074228	-1.8325278337	 1.8910621187	-0.240567
C	-0.6738754302	-1.6594380898	 2.8405615618	-0.337665
C	-1.1103217349	-2.9225225709	 3.4287815445	 0.256584
N	-1.4403051761	-3.9306740277	 3.8876729058	-0.308726
H	 0.5212102443	 2.0394218078	 0.174374348	 0.102492
H	-0.8138439312	 1.5173390078	-0.8678063339	 0.130261
H	-1.0685997359	 1.659630322	 0.877543754	 0.122296
H	 1.2928077479	-1.4297216234	-0.7795088575	 0.114761
H	 1.9861764378	 0.2489236963	-0.5449510988	 0.105399
H	 1.9923576955	 1.3566461537	 1.6544269153	 0.126385
H	 1.0153216472	 0.777864633	 3.0061322406	 0.122402
H	 2.5403109888	-0.0196672316	 2.608890962	 0.129188
H	 0.2508442372	-2.540963397	 1.1072872625	 0.12483
H	 1.3755163808	-2.2672405436	 2.4374017328	 0.114447
H	-0.4364483088	-0.9673995252	 3.6561214053	 0.146191
H	-1.5055035467	-1.2232313587	 2.2764816936	 0.164639
62.9369	69.3186	114.7388	162.2501	178.3533	198.5159	261.7923	288.3746	355.9604	409.1229	441.2906	460.391	483.3218	546.3219	721.2384	755.409	782.3839	899.6499	923.8469	951.9508	981.4418	1011.9899	1032.869	1064.9566	1101.526	1123.9362	1152.5073	1169.2311	1195.9614	1217.3381	1280.1923	1283.8359	1325.8753	1367.7475	1399.1763	1417.8926	1453.9878	1468.7854	1483.1721	1486.8828	1490.4309	1501.2412	1510.1339	1518.2005	2360.991	2985.8165	3035.9968	3044.751	3052.3031	3068.4527	3082.7183	3084.102	3093.1742	3101.478	3107.5051	3130.9503	3167.9461
CN1CC1(C)CCC#N	CN1C[C@]1(C)CCC#N	
InChI=1S/C7H12N2/c1-7(4-3-5-8)6-9(7)2/h3-4,6H2,1-2H3	InChI=1S/C7H12N2/c1-7(4-3-5-8)6-9(7)2/h3-4,6H2,1-2H3/t7-,9?/m0/s1
