20
gdb 46544	3.82578	1.12257	1.0306	3.854	79.52	-0.2358	0.0356	0.2714	1223.1791	0.173124	-403.195105	-403.18709	-403.186146	-403.227795	31.608	
O	-0.3689454646	-0.0418957417	 0.1450039201	-0.378796
C	-0.2471305138	 1.1608573638	 0.0800073068	 0.400732
C	-1.2414178262	 2.2307574147	 0.5430369148	-0.340486
C	-0.7031613104	 3.5329639484	-0.0690299053	-0.262364
C	 0.8111377168	 3.2745537204	-0.2618526759	 0.368665
C	 1.5028511434	 4.1562247884	-1.3371310877	-0.277925
C	 2.0179067798	 5.0820758045	-0.2014516277	-0.209977
C	 1.7385965813	 3.9381680013	 0.8089214737	-0.269282
N	 0.8413206259	 1.8373051336	-0.4127466809	-0.364588
H	-2.2565672501	 1.973677224	 0.2361504193	 0.129577
H	-1.2265915018	 2.2474752103	 1.6388211947	 0.129494
H	-1.1612448789	 3.6984046575	-1.049757628	 0.11173
H	-0.8948762866	 4.4187397314	 0.5406483916	 0.106949
H	 2.3238083578	 3.6189169856	-1.8225644439	 0.10021
H	 0.8636102868	 4.5876945475	-2.1121438614	 0.10126
H	 3.045807214	 5.4402210113	-0.2776576905	 0.104302
H	 1.3630017801	 5.9427534083	-0.0441551984	 0.108596
H	 1.2942555821	 4.1923447722	 1.7751658021	 0.099449
H	 2.6294664047	 3.3275898921	 0.9850810961	 0.099655
H	 1.6832369898	 1.3308151664	-0.6412106994	 0.242798
85.9564	126.4444	142.1911	274.28	349.8921	418.0344	438.629	496.5147	507.9446	575.7532	648.4077	692.4262	762.8488	789.8598	830.329	871.6085	912.3247	922.6381	932.8601	968.8677	985.3639	1015.7306	1037.8835	1086.8603	1122.3573	1184.7766	1197.3241	1207.1009	1230.414	1251.2445	1253.9344	1271.4012	1283.4288	1304.1216	1322.0736	1347.2892	1423.5064	1469.7912	1471.3054	1485.1715	1497.6578	1507.308	1832.5335	3046.7837	3049.2934	3053.3479	3054.3087	3070.1045	3099.0845	3100.9114	3106.2917	3122.5666	3126.6615	3626.9599
O=C1CCC2(CCC2)N1	O=C1CCC2(CCC2)N1	
InChI=1S/C7H11NO/c9-6-2-5-7(8-6)3-1-4-7/h1-5H2,(H,8,9)	InChI=1S/C7H11NO/c9-6-2-5-7(8-6)3-1-4-7/h1-5H2,(H,8,9)
