16
gdb 26037	3.2228	1.28844	0.96534	1.1708	74.61	-0.2326	0.0157	0.2484	1177.4921	0.126213	-396.989046	-396.980825	-396.979881	-397.022903	29.815	
C	-0.2458295572	 1.5397779214	 0.0660051743	-0.385969
C	 0.1477861962	 0.0487384455	-0.0363825228	-0.277227
C	 1.0070479992	-0.202461765	-1.1980319651	 0.284893
N	 1.7150793916	-0.4115245069	-2.0874994615	-0.332348
C	 0.8179181862	-0.4414119383	 1.2258055125	 0.395606
N	 0.2966224823	-0.339871029	 2.4274538551	-0.316295
C	 1.2178153502	-0.9098333418	 3.2756956041	-0.088087
C	 2.3045957394	-1.3591751349	 2.5738685366	-0.111214
N	 2.0356169533	-1.0525100472	 1.2586553708	-0.290381
H	 0.6437662074	 2.1679800599	 0.1527092535	 0.13961
H	-0.812825313	 1.8491813047	-0.8151351934	 0.132851
H	-0.8567950259	 1.6728799	 0.9599250626	 0.161019
H	-0.7696007434	-0.5364413564	-0.182706382	 0.155685
H	 1.0443059463	-0.9633983136	 4.3394292656	 0.113411
H	 3.216468954	-1.849804439	 2.8697108385	 0.135141
H	 2.6233982834	-1.2387808495	 0.4611760012	 0.283304
29.1514	126.8917	159.8523	213.3327	233.4234	338.7687	385.2022	500.8109	558.4434	590.0566	651.8331	685.1536	733.4414	756.6322	861.6413	864.0037	929.7673	983.8105	1022.1706	1080.2055	1103.9242	1119.6422	1141.3461	1182.9996	1278.6454	1295.9178	1316.5521	1396.184	1406.5489	1470.9392	1489.0109	1492.6806	1505.2341	1581.9354	2356.5946	3027.9208	3057.8519	3136.2737	3154.3635	3253.2362	3284.6951	3643.9677
CC(C#N)C1=NC=CN1	C[C@@H](C#N)c1ncc[nH]1	
InChI=1S/C6H7N3/c1-5(4-7)6-8-2-3-9-6/h2-3,5H,1H3,(H,8,9)	InChI=1S/C6H7N3/c1-5(4-7)6-8-2-3-9-6/h2-3,5H,1H3,(H,8,9)/t5-/m0/s1
