23
gdb 93896	2.70203	1.4373	1.14484	1.2479	85.07	-0.2436	0.0809	0.3245	1191.949	0.207112	-388.294029	-388.28522	-388.284276	-388.32713	34.998	
C	-0.3855716177	 1.5016983306	 0.0042979691	-0.389724
C	 0.0348992947	 0.0254430477	-0.009918767	-0.002749
C	 0.8512016039	-0.3299561739	-1.2664419787	-0.081774
O	 2.2326221858	-0.0477794151	-1.1146267384	-0.260664
C	 2.8625432019	-0.9630268016	-0.2241918683	 0.112401
C	 4.3487781557	-0.6312892364	-0.2056733271	-0.398913
C	 2.2177774128	-0.9066708176	 1.1514556541	-0.029939
C	 1.9573749586	 0.4384939919	 1.7733644541	-0.289215
C	 0.7995554651	-0.3860851892	 1.2544448892	-0.047769
H	 0.484729751	 2.1604824131	-0.0732553401	 0.125525
H	-1.0489959333	 1.7247789067	-0.8385979247	 0.106044
H	-0.9158507671	 1.754330934	 0.927994502	 0.110968
H	-0.8794214935	-0.580449804	-0.047380932	 0.070022
H	 0.722035475	-1.3978053126	-1.5083358405	 0.081126
H	 0.5108796978	 0.2525837115	-2.1288606489	 0.097848
H	 2.7282473101	-1.9841148695	-0.6263565399	 0.058931
H	 4.5113051513	 0.3754674268	 0.1891975921	 0.123574
H	 4.8899292986	-1.3419513214	 0.4265337061	 0.111049
H	 4.7610316072	-0.6788480365	-1.2173762756	 0.119268
H	 2.5011184534	-1.7216334115	 1.8117531103	 0.078273
H	 2.069403944	 0.5466979273	 2.8465262392	 0.103622
H	 2.2507720815	 1.3111554448	 1.2005778909	 0.121603
H	 0.1811818431	-0.841093255	 2.0224178142	 0.080492
67.1288	200.4818	213.9402	230.6891	248.7481	290.5371	318.3697	361.783	410.3583	481.1558	539.5443	621.7583	719.3866	732.0656	761.3007	837.1096	863.5285	879.9423	955.2069	962.498	978.209	1003.5191	1023.1702	1074.2695	1080.8211	1092.2287	1104.2037	1129.4015	1143.0113	1147.4214	1170.307	1192.5092	1232.0644	1296.4169	1331.9382	1352.4042	1358.225	1372.7564	1380.253	1399.5207	1407.2814	1416.3448	1424.9432	1480.3446	1485.3686	1491.2518	1496.3955	1499.0728	1505.0982	2928.9657	2965.4179	3019.2989	3031.7231	3043.1919	3069.9794	3097.4757	3109.0135	3116.9794	3122.6012	3134.6677	3137.9247	3149.0486	3221.0085
CC1COC(C)C2CC12	C[C@H]1CO[C@@H](C)[C@H]2C[C@@H]12	
InChI=1S/C8H14O/c1-5-4-9-6(2)8-3-7(5)8/h5-8H,3-4H2,1-2H3	InChI=1S/C8H14O/c1-5-4-9-6(2)8-3-7(5)8/h5-8H,3-4H2,1-2H3/t5-,6-,7-,8+/m0/s1
