14
gdb 20700	5.89465	1.60239	1.27102	3.2001	68.7	-0.2245	-0.0588	0.1657	918.3072	0.108238	-374.926998	-374.919805	-374.91886	-374.958415	26.607	
C	-0.0389699506	 1.4766114034	 0.0232150024	-0.454266
C	 0.0012300081	-0.0232853908	 0.002707814	 0.374718
N	 0.1373198223	-0.633462813	-1.1952843064	-0.259741
C	 0.1809048668	-1.945450913	-1.1741668778	-0.055933
C	 0.0816756373	-2.6523132255	 0.0431766569	 0.387878
N	 0.1835299332	-4.0219133592	 0.1136032903	-0.566397
N	-0.0719874796	-1.9893955629	 1.1900694209	-0.258158
N	-0.1042380425	-0.65961785	 1.1668664863	-0.223149
H	 0.8845752724	 1.8902265295	-0.394778133	 0.138403
H	-0.8637133883	 1.8470583741	-0.5939945203	 0.13763
H	-0.1634010186	 1.8322885277	 1.0462906727	 0.142221
H	 0.2938731646	-2.4696244176	-2.1228280767	 0.114114
H	-0.1062146035	-4.5485388044	-0.6953043972	 0.258524
H	-0.1154556217	-4.4110519783	 0.9964834379	 0.264156
92.6889	115.38	300.4733	342.4573	356.5057	415.453	424.4206	501.018	528.629	595.9133	664.7304	784.8864	803.9844	875.7094	946.9716	998.027	1058.0894	1067.4512	1099.061	1156.3153	1311.7652	1323.0998	1399.0784	1410.6811	1465.1544	1479.7581	1490.1473	1557.4832	1612.4307	1644.5828	3045.3324	3100.8957	3128.0114	3154.8408	3572.4019	3687.1959
CC1=NC=C(N)N=N1	Cc1ncc(N)nn1	
InChI=1S/C4H6N4/c1-3-6-2-4(5)8-7-3/h2H,1H3,(H2,5,8)	InChI=1S/C4H6N4/c1-3-6-2-4(5)8-7-3/h2H,1H3,(H2,5,8)
