19
gdb 72750	2.53616	1.72857	1.5253	2.795	74.84	-0.2278	0.068	0.2957	975.9122	0.159272	-422.972248	-422.964416	-422.963471	-423.004316	31.14	
O	-0.021403465	 1.4614622514	 0.1326887194	-0.481647
C	-0.0231365943	 0.0742593324	-0.0162927955	 0.344808
C	 0.3552233322	-0.7593241957	 1.26195249	-0.289832
C	-1.1317661637	-1.2310327956	 1.4172869521	-0.327687
C	-1.3660263339	-0.7349899061	 0.0044745409	 0.46082
O	-2.5906774491	-0.3120040927	-0.5638864807	-0.331012
C	-2.1997788918	-0.8412161941	-1.8598556714	-0.100899
C	-0.8944699879	-1.448922025	-1.2923348889	-0.133452
C	 0.3788390854	-0.5594231978	-1.376542437	-0.325179
H	 0.8929846956	 1.7599746648	 0.1981216747	 0.277493
H	 1.0667333915	-1.5690049086	 1.0825739673	 0.098952
H	 0.7195883833	-0.1336615066	 2.0785368056	 0.106634
H	-1.3194089083	-2.2878724361	 1.6247312265	 0.098565
H	-1.6675116805	-0.6217776869	 2.1510380799	 0.120907
H	-2.9368467175	-1.563925025	-2.226604895	 0.106745
H	-2.0676389872	-0.046056483	-2.6034898529	 0.105794
H	-0.7849758301	-2.530348038	-1.3739127617	 0.074291
H	 0.3577784114	 0.1565686792	-2.2037469506	 0.101661
H	 1.3328128398	-1.0949462465	-1.3940955928	 0.093039
92.5017	196.2622	212.7882	229.0884	320.225	387.323	389.9313	481.7728	559.2476	587.0565	663.835	756.9488	802.0274	821.799	847.1433	868.4901	919.1993	926.7755	965.7189	987.1412	1022.184	1038.7542	1069.0039	1132.6788	1149.9387	1167.6203	1172.1015	1177.9644	1206.2918	1227.7072	1235.3346	1243.7173	1276.8648	1298.9274	1322.6181	1348.8387	1377.5621	1462.6003	1475.5005	1489.8478	1516.2443	3020.8421	3043.308	3055.3757	3066.1741	3069.7786	3095.5569	3105.739	3110.9064	3130.0581	3786.9033
OC12CCC11OCC1C2	O[C@@]12CC[C@]31OC[C@H]3C2	
InChI=1S/C7H10O2/c8-6-1-2-7(6)5(3-6)4-9-7/h5,8H,1-4H2	InChI=1S/C7H10O2/c8-6-1-2-7(6)5(3-6)4-9-7/h5,8H,1-4H2/t5-,6-,7+/m1/s1
