23
gdb 91427	2.81892	1.45426	1.16673	0.3346	90.35	-0.2293	0.021	0.2503	1171.5591	0.208859	-351.156583	-351.148553	-351.147609	-351.188633	33.242	
C	 0.291896491	 1.6112598196	 0.0239792086	-0.405571
C	 0.0306428013	 0.0961075894	 0.0077978871	-0.020696
C	 0.5334449918	-0.4999377193	-1.3301432911	-0.200002
C	 0.5553187557	-2.0326015612	-1.4768451076	-0.010624
C	-0.4162978835	-2.8006749335	-0.5333632483	-0.2354
C	 0.7571822118	-2.9459846574	 0.4835399765	-0.04264
C	 1.7269591497	-2.7221241396	-0.7221325389	-0.214887
C	 0.8438977949	-1.8315632788	 1.4913436535	-0.090106
C	 0.5663580158	-0.5440849344	 1.2748975439	-0.034938
H	 1.3674388969	 1.8217260506	 0.0387030561	 0.116409
H	-0.1319676613	 2.0943545086	-0.8622381011	 0.108519
H	-0.1525876983	 2.080523978	 0.9077270621	 0.110178
H	-1.0625030735	-0.0334560037	 0.0245583489	 0.089994
H	-0.1010556367	-0.0778124209	-2.1197488398	 0.090452
H	 1.5465641616	-0.1222788097	-1.5264355668	 0.093626
H	 0.4797855832	-2.2838002935	-2.5389125885	 0.060263
H	-1.3234598866	-2.2975087651	-0.1918242226	 0.096926
H	-0.6926031011	-3.7720593134	-0.9531704171	 0.091587
H	 0.8356379917	-3.9126811223	 0.9867683807	 0.058192
H	 2.0094921451	-3.6677510557	-1.1948047267	 0.090393
H	 2.6261938945	-2.1307938892	-0.5308524544	 0.091015
H	 1.2002088835	-2.1128769747	 2.4801503139	 0.079863
H	 0.6936034928	 0.1437649062	 2.1096845318	 0.077449
102.8071	208.2075	257.115	304.7051	308.0334	334.078	369.0291	391.876	508.824	575.8331	658.3545	737.9272	778.3064	798.1924	812.2084	845.9539	881.327	889.5083	934.2577	946.7167	987.788	1002.9026	1013.3789	1048.369	1068.8428	1084.9169	1116.2528	1121.3344	1156.9538	1165.6382	1190.7353	1231.7455	1257.1176	1261.4825	1274.675	1297.3417	1314.7764	1348.9309	1351.5307	1369.6597	1385.0861	1406.8223	1429.6634	1474.5479	1486.1294	1499.1379	1501.2124	1502.2731	1713.7893	2976.4349	3006.6662	3027.6806	3040.0938	3046.3788	3051.9856	3061.0595	3072.2164	3095.7334	3101.3488	3105.6306	3111.0728	3124.0797	3151.6928
CC1CC2CC(C2)C=C1	C[C@H]1C[C@@H]2C[C@@H](C2)C=C1	
InChI=1S/C9H14/c1-7-2-3-8-5-9(4-7)6-8/h2-3,7-9H,4-6H2,1H3	InChI=1S/C9H14/c1-7-2-3-8-5-9(4-7)6-8/h2-3,7-9H,4-6H2,1H3/t7-,8-,9+/m1/s1
