14
gdb 12338	3.24422	2.26592	1.40535	3.7708	58.69	-0.2636	-0.012	0.2516	831.7686	0.107576	-419.709598	-419.702697	-419.701753	-419.740973	25.741	
O	 0.4076541192	 0.9392450756	 0.6843347349	-0.436655
C	-0.0656351096	-0.1753400457	-0.0186445777	-0.030834
C	-1.5530297028	-0.1198305093	-0.2476535935	-0.079013
C	-2.0783513538	-0.8500347318	-1.2238787765	-0.096123
C	-1.1806296761	-1.6667177471	-2.1062758707	-0.118131
O	 0.1253581036	-1.0797937973	-2.2997559212	-0.221532
C	 0.6632419822	-0.2937138115	-1.3602593817	 0.403819
O	 1.6916993183	 0.3018140411	-1.5618274632	-0.349144
H	 1.2294721074	 1.1938077187	 0.2359409689	 0.298848
H	 0.167074625	-1.1064771172	 0.5366771787	 0.110847
H	-2.1347915114	 0.5081798415	 0.4175904407	 0.124747
H	-3.1443625828	-0.8894589533	-1.4198977564	 0.115208
H	-1.0398612749	-2.682240135	-1.7094252935	 0.135536
H	-1.5899308344	-1.7650094484	-3.1148589088	 0.142426
72.8503	150.7124	317.3003	324.2742	419.1665	446.5085	482.8235	524.786	571.9704	661.0114	691.7864	837.2079	886.556	938.2535	980.1057	1002.3235	1037.32	1097.2413	1155.2811	1171.6244	1224.4467	1244.3329	1254.8295	1331.2792	1390.5912	1417.4199	1441.7427	1499.7572	1720.233	1826.9346	2896.4745	3008.9294	3096.6171	3186.0695	3209.3305	3702.3377
OC1C=CCOC1=O	O[C@H]1C=CCOC1=O	
InChI=1S/C5H6O3/c6-4-2-1-3-8-5(4)7/h1-2,4,6H,3H2	InChI=1S/C5H6O3/c6-4-2-1-3-8-5(4)7/h1-2,4,6H,3H2/t4-/m0/s1
