23
gdb 39661	3.74107	1.03184	0.89623	0.0823	90.27	-0.2333	0.0321	0.2655	1384.7308	0.207944	-351.159918	-351.151451	-351.150507	-351.193552	33.046	
C	-0.0284449834	 1.5096338262	 0.2283936043	-0.216036
C	 1.5137086671	 1.5082884742	 0.0538023328	-0.234072
C	 1.5279136628	 0.0235198301	 0.5233597202	 0.071043
C	 0.0048958578	-0.0418371956	 0.2049748599	-0.234073
C	 2.4739707114	-0.9633910491	-0.1541077099	-0.008345
C	 3.9609981579	-0.6515743253	 0.1912107198	-0.268387
C	 4.3048220505	-1.6777550917	 1.2439039718	-0.054654
C	 3.3783378961	-2.6296102276	 1.336731343	-0.054657
C	 2.2444785023	-2.4150986911	 0.3631959956	-0.268387
H	-0.3243972479	 1.8933367772	 1.2090702448	 0.10012
H	-0.6252040725	 2.0161458624	-0.5339145412	 0.093809
H	 1.7995225901	 1.591443665	-1.0006108659	 0.094871
H	 2.0934034605	 2.236306582	 0.6268320565	 0.09235
H	 1.6811771073	-0.0197593987	 1.6092568545	 0.070067
H	-0.6453315899	-0.5774176806	 0.9012342563	 0.09235
H	-0.1710468339	-0.4330817361	-0.8031736371	 0.094871
H	 2.3063201569	-0.9056674718	-1.2354751201	 0.057696
H	 4.6160261388	-0.7597677651	-0.6845971785	 0.098894
H	 4.0926468134	 0.379813315	 0.5410231405	 0.100407
H	 5.221676189	-1.6369886604	 1.8222472336	 0.086418
H	 3.4229918329	-3.4849318909	 2.0024604394	 0.086418
H	 1.2565939579	-2.5339001975	 0.8251826467	 0.100407
H	 2.287925455	-3.1516162305	-0.451334907	 0.098894
72.8469	83.2469	135.7051	164.1984	305.8265	353.2431	375.0697	436.6741	611.1592	694.1776	742.169	762.8559	777.9986	795.7519	887.1561	901.7041	910.5885	935.3669	941.8488	947.6533	962.6756	977.1471	978.9135	1003.0168	1028.4335	1083.8962	1105.9565	1120.2702	1132.0457	1180.1652	1197.7622	1221.057	1242.2754	1256.067	1256.2134	1264.8001	1276.843	1296.4388	1309.9643	1316.7884	1329.3892	1376.1057	1395.6084	1478.2386	1484.1228	1486.8465	1491.6553	1510.5919	1688.4198	3003.9302	3007.15	3022.8437	3038.003	3039.9142	3044.247	3045.9731	3048.7095	3056.2939	3092.1324	3096.4486	3113.8743	3177.2169	3203.1924
C1CC(C1)C1CC=CC1	C1CC(C1)[C@H]1CC=CC1	
InChI=1S/C9H14/c1-2-5-8(4-1)9-6-3-7-9/h1-2,8-9H,3-7H2	InChI=1S/C9H14/c1-2-5-8(4-1)9-6-3-7-9/h1-2,8-9H,3-7H2
