22
gdb 111303	2.2815	1.33794	1.13517	2.5219	81.5	-0.2294	0.0701	0.2995	1220.484	0.193278	-404.301524	-404.291888	-404.290944	-404.335521	37.007	
C	-0.1413221323	 1.563444595	-0.2044555297	-0.44746
C	-0.0097478641	 0.0509743989	-0.0374407833	 0.306478
C	-1.3656689658	-0.5978465746	 0.2418460267	-0.446862
C	 0.7392571121	-0.6869145332	-1.1666630002	-0.077417
N	 2.1244214215	-0.1643013272	-1.2044750355	-0.347725
C	 1.7546169343	-1.2197364621	-0.2240317551	-0.078251
C	 1.1024848565	-0.4972580219	 0.965738861	-0.048916
C	 1.9759309944	 0.4698786436	 1.7527134677	-0.096471
O	 2.9483460938	-0.2197727718	 2.5335435837	-0.425986
H	 0.8103240997	 2.0132491556	-0.4945518948	 0.136554
H	-0.877067092	 1.7969404558	-0.983133542	 0.10507
H	-0.4846894549	 2.0383477654	 0.7215807304	 0.110239
H	-2.0832649659	-0.3645295649	-0.5537038762	 0.109684
H	-1.2819445629	-1.6879804287	 0.3086859948	 0.112263
H	-1.7849972761	-0.2341430355	 1.186393231	 0.11641
H	 0.2982482061	-1.1461878244	-2.0447895878	 0.085055
H	 2.5979185536	-0.6257411703	-1.9804784516	 0.227763
H	 2.261433928	-2.1775542967	-0.2268972246	 0.089719
H	 0.6582644824	-1.2140181889	 1.6628789343	 0.074643
H	 2.4512200815	 1.1886764561	 1.0741862271	 0.108496
H	 1.3667436649	 1.0335952044	 2.4675096643	 0.103768
H	 3.5875067353	-0.5980737947	 1.9216926299	 0.282944
74.9918	143.1596	165.3017	227.6193	250.2827	266.9768	280.0649	298.6236	313.2726	337.315	475.3462	513.9441	571.944	624.0295	786.1054	807.8586	846.8919	863.2463	890.1512	930.3987	953.9062	975.4702	1007.124	1023.3399	1034.9631	1056.5518	1083.5305	1111.2358	1119.7103	1176.2425	1190.1517	1210.7622	1236.0975	1254.5624	1299.5691	1326.187	1356.1118	1378.8354	1395.4873	1401.2047	1412.0575	1420.4315	1483.2744	1490.1509	1499.0015	1503.7675	1513.5573	3020.3137	3025.3983	3029.9427	3061.8754	3080.6509	3083.1721	3088.7376	3095.3272	3128.2983	3166.1387	3183.1553	3475.16	3820.2632
CC1(C)C2NC2C1CO	CC1(C)[C@H]2N[C@H]2[C@H]1CO	
InChI=1S/C7H13NO/c1-7(2)4(3-9)5-6(7)8-5/h4-6,8-9H,3H2,1-2H3	InChI=1S/C7H13NO/c1-7(2)4(3-9)5-6(7)8-5/h4-6,8-9H,3H2,1-2H3/t4-,5+,6+/m1/s1
