21
gdb 111776	2.876	1.24039	1.11944	3.1033	82.07	-0.2291	-0.0014	0.2277	1207.7284	0.184005	-387.101827	-387.09345	-387.092506	-387.134907	32.591	
C	 0.0105826891	 1.5887708253	-0.0856816505	-0.379357
C	 0.0454742615	 0.0801693291	 0.1857409399	-0.224882
C	-1.3305246733	-0.5661796959	 0.060718855	 0.032852
C	-2.0331482951	-0.7274832734	-1.3417339226	-0.153811
C	-1.0253725693	-1.5917462597	-2.1335415281	-0.227076
C	-0.6354926874	-2.6387820232	-1.0283708717	-0.225798
C	-1.5065967902	-2.128166724	 0.1427034783	-0.167812
C	-2.8174174919	-1.8316311007	-0.6086940621	 0.432574
O	-3.9567665979	-2.186010704	-0.5396675486	-0.329057
H	 1.0011180068	 2.0359806937	 0.041452911	 0.115271
H	-0.323058602	 1.8004097349	-1.1070752367	 0.120497
H	-0.6762018371	 2.0988927282	 0.5984688979	 0.118486
H	 0.7646574922	-0.3937172806	-0.4897998126	 0.101772
H	 0.4206450915	-0.1006287138	 1.2011923245	 0.102321
H	-2.021052026	-0.0819557413	 0.7602409827	 0.086987
H	-2.5286177812	 0.0954403571	-1.8528930162	 0.079906
H	-1.4880318842	-2.0576482747	-3.0072062403	 0.112123
H	-0.1678847098	-1.0114573619	-2.4830647288	 0.1072
H	-0.895791001	-3.6619732759	-1.3110945076	 0.111899
H	 0.4304882709	-2.621916552	-0.7896282815	 0.107346
H	-1.4835792457	-2.672240217	 1.0850906982	 0.078559
75.5397	129.3816	178.089	216.5355	277.0019	280.9823	369.0698	480.3326	495.3246	650.6877	656.9226	707.5984	770.023	790.3712	823.9008	862.8347	896.376	904.0275	954.0592	977.4493	986.2129	1013.5233	1058.9846	1064.2639	1095.8257	1123.8695	1135.9147	1141.874	1174.8603	1206.4154	1245.7731	1248.2579	1256.2492	1293.7655	1314.7908	1327.7157	1347.8418	1408.9551	1418.1957	1479.9697	1499.3086	1500.3779	1505.8135	1515.9737	1900.5186	3028.3057	3033.0356	3044.7873	3059.3884	3066.6909	3073.4	3095.7143	3102.9121	3105.9769	3113.6517	3139.5403	3143.5333
CCC1C2CCC1C2=O	CC[C@H]1[C@H]2CC[C@@H]1C2=O	
InChI=1S/C8H12O/c1-2-5-6-3-4-7(5)8(6)9/h5-7H,2-4H2,1H3	InChI=1S/C8H12O/c1-2-5-6-3-4-7(5)8(6)9/h5-7H,2-4H2,1H3/t5-,6+,7-
