18
gdb 17611	4.01729	1.30827	1.12491	3.4331	68.75	-0.2468	-0.0298	0.217	1108.1578	0.151225	-384.936244	-384.927229	-384.926285	-384.970529	31.695	
C	-0.2180581446	 1.6334841735	 0.0657881139	-0.388046
C	 0.0160153668	 0.1282605675	-0.0624451574	-0.082422
C	 0.9904006371	-0.3976483218	 1.0146953013	-0.395372
C	-1.2931972793	-0.6511716912	 0.0180743547	 0.367888
O	-2.3355838926	-0.1606177044	 0.3838610896	-0.311582
C	-1.2252638596	-2.11626576	-0.3601700809	-0.017767
C	-2.0314645198	-3.0886348191	 0.4079599816	-0.161466
O	-2.4281230615	-2.674926188	-0.8857722637	-0.208449
H	 0.7300296389	 2.1749116332	-0.0062046514	 0.107962
H	-0.8864742675	 1.9979977867	-0.7183573754	 0.126887
H	-0.6824754252	 1.8709930472	 1.0265949683	 0.132646
H	 0.4576592122	-0.0944793063	-1.0447852125	 0.092305
H	 0.5945251332	-0.2051588982	 2.0172596156	 0.132082
H	 1.1707324681	-1.4731416946	 0.9235690674	 0.121489
H	 1.9548513457	 0.1112151184	 0.9289485316	 0.126741
H	-0.3137081739	-2.4618682524	-0.8462678184	 0.100615
H	-1.6795258836	-4.1157136762	 0.4951330888	 0.120412
H	-2.6467754445	-2.7112385042	 1.222258247	 0.136079
48.0634	63.0037	179.0811	198.0296	210.7636	249.9311	298.2531	312.604	336.9701	429.1127	622.6414	747.0695	774.1908	860.0062	879.7286	914.1281	931.9824	970.9267	1003.8221	1045.0924	1095.463	1108.9722	1141.0019	1162.3359	1170.9127	1202.8155	1281.0785	1308.7486	1364.1518	1398.9909	1413.089	1421.5544	1484.2126	1486.8969	1502.382	1504.9287	1508.4825	1808.6532	3003.6625	3035.9566	3046.6209	3086.2902	3106.6677	3111.2384	3118.2789	3119.7073	3125.6517	3185.9043
CC(C)C(=O)C1CO1	CC(C)C(=O)[C@H]1CO1	
InChI=1S/C6H10O2/c1-4(2)6(7)5-3-8-5/h4-5H,3H2,1-2H3	InChI=1S/C6H10O2/c1-4(2)6(7)5-3-8-5/h4-5H,3H2,1-2H3/t5-/m1/s1
