21
gdb 95288	2.08018	1.79297	1.37167	0.5866	77.17	-0.249	0.0667	0.3157	1064.6846	0.183061	-424.228342	-424.219841	-424.218897	-424.260925	33.679	
C	-0.4883650327	 1.4377623728	 0.0078628102	-0.425148
C	 0.0182371796	-0.0023971964	-0.0197297298	 0.018216
C	 0.9315020094	-0.3691229733	-1.2070066205	-0.231763
C	 1.5904289038	-1.6965273086	-0.7798964549	-0.231752
C	 1.8379756482	-1.5065800284	 0.7113115057	 0.063834
O	 2.9348355283	-0.5934955877	 0.9719582944	-0.296734
C	 2.0687741864	 0.37518401	 1.5901835139	-0.137418
C	 0.8094681734	-0.445568249	 1.2239881946	 0.347737
O	-0.0948673995	-0.7433554559	 2.2549090384	-0.490865
H	 0.3373195178	 2.157654088	-0.000580365	 0.112595
H	-1.113605782	 1.6479047309	-0.8658041332	 0.11366
H	-1.0899965184	 1.6194464984	 0.9036377123	 0.127037
H	-0.8517802707	-0.6730807013	-0.0407897548	 0.085029
H	 0.3797870756	-0.4457176159	-2.1479438067	 0.095775
H	 1.7005994629	 0.4002664045	-1.3428269286	 0.108676
H	 0.8979934554	-2.5349173743	-0.9250928564	 0.099712
H	 2.5123967719	-1.9244557815	-1.3222985837	 0.107856
H	 1.9395994561	-2.4340461582	 1.2873100163	 0.063208
H	 2.2370416631	 0.4507072391	 2.6756865408	 0.08501
H	 2.1797822735	 1.3729140801	 1.1497890494	 0.105051
H	 0.4039551279	-0.9748254532	 3.0454575076	 0.280283
102.6188	191.9476	219.6653	248.407	256.0524	296.6786	336.1512	405.3829	418.079	515.6203	529.686	614.5348	649.8756	817.0867	822.7645	876.1791	893.0156	937.5858	958.6837	978.5161	1012.0462	1020.4053	1035.1558	1054.8156	1105.799	1127.9077	1138.4221	1159.2424	1164.5821	1199.8779	1248.3294	1270.6803	1303.1983	1320.0277	1326.6152	1351.6402	1363.5699	1382.3534	1401.2371	1411.4568	1470.0747	1495.2405	1498.7071	1501.2098	1520.6744	2980.468	3013.8485	3028.9813	3032.5376	3043.0253	3044.749	3052.9776	3091.0451	3096.8698	3100.4435	3109.0152	3808.6131
CC1CCC2OCC12O	C[C@H]1CC[C@H]2OC[C@@]12O	
InChI=1S/C7H12O2/c1-5-2-3-6-7(5,8)4-9-6/h5-6,8H,2-4H2,1H3	InChI=1S/C7H12O2/c1-5-2-3-6-7(5,8)4-9-6/h5-6,8H,2-4H2,1H3/t5-,6+,7+/m0/s1
