19
gdb 119368	3.05784	1.05052	0.92033	2.2635	76.13	-0.2383	0.0123	0.2506	1318.1708	0.158826	-422.990214	-422.981398	-422.980454	-423.02441	32.564	
O	-0.1001066855	 1.4423732201	-0.0010400746	-0.419002
C	 0.0191087206	 0.0300107531	-0.067036888	-0.082433
C	-1.3865841649	-0.5534932129	 0.0568793787	-0.327628
C	-1.39358281	-2.0563008094	 0.0151156327	 0.199567
C	-0.7718511132	-3.0863098741	 1.0363187284	-0.265545
C	-1.4169505414	-4.0136309559	-0.0470126423	-0.173285
C	-2.6315074014	-3.0258520842	-0.0128309887	-0.279818
C	-0.8196063136	-3.0148213773	-1.047017995	 0.436062
O	-0.2238310208	-2.9805685901	-2.0806929331	-0.339685
H	 0.7710121203	 1.824250038	-0.1415967087	 0.287105
H	 0.4668110791	-0.2958568481	-1.0175036588	 0.114592
H	 0.655333793	-0.3542969194	 0.7470099304	 0.085279
H	-1.8410051645	-0.1923394834	 0.9872543398	 0.111447
H	-1.9975736225	-0.1625709718	-0.7652586729	 0.118598
H	 0.314431416	-3.1101445376	 1.1430709282	 0.111721
H	-1.2769408774	-3.1096208594	 2.0054506434	 0.107295
H	-1.4380518684	-5.1001235039	-0.0686761847	 0.095721
H	-3.2025495875	-3.0481475304	 0.918972263	 0.107053
H	-3.2828440077	-2.9881837833	-0.8884602279	 0.112958
61.6036	91.3206	122.3813	191.729	241.3936	256.8041	343.4988	367.1648	495.4286	519.4492	696.905	711.1608	777.1153	797.9179	807.9811	822.4088	911.3431	938.0245	979.8332	1007.895	1022.1546	1037.2805	1056.6833	1076.866	1085.4992	1130.9075	1170.5585	1187.2097	1198.1363	1223.4668	1246.9267	1253.8766	1313.82	1319.0691	1380.2538	1463.7603	1487.099	1495.3295	1531.2633	1532.9296	1905.5832	2967.0503	3010.6885	3033.9427	3058.8428	3059.0161	3075.5669	3130.3348	3131.288	3157.1364	3832.4658
OCCC12CC(C1)C2=O	OCC[C@@]12C[C@@H](C1)C2=O	
InChI=1S/C7H10O2/c8-2-1-7-3-5(4-7)6(7)9/h5,8H,1-4H2	InChI=1S/C7H10O2/c8-2-1-7-3-5(4-7)6(7)9/h5,8H,1-4H2/t5-,7+
