14
gdb 129463	4.95518	0.9674	0.82466	6.248	63.97	-0.2643	-0.0332	0.2311	1288.272	0.100198	-470.017056	-470.008668	-470.007724	-470.051926	29.146	
N	 0.0746622642	 1.3090798011	-0.2547086867	-0.522866
C	 0.0062052097	 0.069716077	 0.3033305755	 0.426289
O	 0.7595564884	-0.2992517254	 1.1807295536	-0.342119
C	-1.1389538874	-0.7933034617	-0.2396218923	-0.458132
C	-0.9156442146	-2.2598638252	-0.0887866365	 0.420962
C	-0.104224395	-3.0391630712	 0.6776713146	-0.183238
N	-0.3941892675	-4.3451838731	 0.3574284698	-0.114696
N	-1.2925252307	-4.4101430685	-0.5148492443	-0.015697
O	-1.6727596925	-3.0577394178	-0.8438903462	-0.228003
H	 0.7823610492	 1.9423275293	 0.080239377	 0.270879
H	-0.5223262048	 1.6036780882	-1.0068708325	 0.266352
H	-2.0483269742	-0.5069589487	 0.3072290036	 0.169772
H	-1.3380093709	-0.5686253016	-1.2926631466	 0.142336
H	 0.6369001259	-2.7600280623	 1.402114881	 0.168159
28.6422	44.5949	162.1755	171.0508	252.9607	310.4563	362.3913	494.3797	587.2262	629.565	635.9854	678.7985	705.43	782.2023	858.582	866.261	960.457	989.5237	1051.8298	1088.0829	1115.7926	1200.2835	1222.3161	1277.5109	1355.2909	1416.6745	1454.8785	1461.8826	1607.1539	1621.7659	1806.0289	3023.4923	3076.7165	3333.794	3605.8432	3741.9847
NC(=O)CC1=CN=NO1	NC(=O)Cc1cnno1	
InChI=1S/C4H5N3O2/c5-4(8)1-3-2-6-7-9-3/h2H,1H2,(H2,5,8)	InChI=1S/C4H5N3O2/c5-4(8)1-3-2-6-7-9-3/h2H,1H2,(H2,5,8)
