14
gdb 9871	5.32624	0.92839	0.84492	3.2806	72.74	-0.2611	-0.0609	0.2003	1303.3478	0.104629	-382.496683	-382.488366	-382.487422	-382.530175	29.089	
O	-0.0502384829	 1.3824243571	-0.0666015917	-0.436461
C	 0.0007075659	-0.0162559136	-0.0130148883	 0.210283
C	-0.4800561428	-0.6948196618	 1.2690215219	-0.307984
C	-1.3570098844	-0.6810557955	 0.0516343397	-0.282859
C	 1.0505768332	-0.6419574729	-0.7593682258	 0.121568
C	 1.9573423296	-1.1584497136	-1.3731981978	-0.026424
C	 3.0341501564	-1.7476075368	-2.1179242673	 0.016065
O	 3.2249251822	-2.9385811609	-2.2278980186	-0.236252
H	 0.7550124901	 1.7254662604	 0.3376832447	 0.290379
H	-0.0051634716	-1.6230401104	 1.5629258411	 0.138377
H	-0.7279069534	-0.0145810958	 2.0757108961	 0.131783
H	-2.1923178675	 0.0091347382	 0.037174025	 0.141952
H	-1.4960294441	-1.5992110417	-0.5050635465	 0.141542
H	 3.7027070894	-1.0068285124	-2.6028681225	 0.09803
72.2034	81.3547	126.1894	213.0669	265.4103	316.2342	336.1678	394.9672	515.6503	565.0203	590.9503	720.2136	781.0235	856.6832	873.6676	938.0241	993.7746	1018.9338	1058.5549	1077.8597	1088.2533	1197.0071	1241.043	1319.233	1370.5153	1421.4691	1449.997	1483.4387	1760.0086	2304.4561	2914.1984	3144.7332	3152.1517	3237.2294	3252.2087	3794.9589
OC1(CC1)C#CC=O	OC1(CC1)C#CC=O	
InChI=1S/C6H6O2/c7-5-1-2-6(8)3-4-6/h5,8H,3-4H2	InChI=1S/C6H6O2/c7-5-1-2-6(8)3-4-6/h5,8H,3-4H2
