16
gdb 126202	2.08292	1.57807	0.94746	2.6152	80.39	-0.2382	-0.0236	0.2147	1217.1362	0.123313	-400.725278	-400.716705	-400.715761	-400.759188	31.252	
C	 0.2191405043	 1.6245620356	-0.1915352872	-0.377755
C	-0.10314423	 0.1469005632	 0.0939651869	-0.308854
C	 0.5602548678	-0.3676608583	 1.3235895356	 0.359121
C	 0.072332891	-0.8455916196	 2.5152324617	-0.056353
C	 1.2599372019	-1.1531509983	 3.2507565426	-0.055237
N	 2.3454705778	-0.8888510254	 2.5769921854	-0.13352
O	 1.9003342112	-0.3884558959	 1.3488423573	-0.213218
C	-1.2732354327	-0.9957778964	 2.9125036477	 0.231906
C	-2.4186601629	-1.1284339788	 3.2596989612	-0.445011
H	 1.2953880448	 1.7718250785	-0.3114816471	 0.141486
H	-0.2772496204	 1.9483475662	-1.1103332336	 0.122742
H	-0.122982135	 2.2647102103	 0.6266429072	 0.131162
H	-1.1806055265	 0.0048682169	 0.2161799832	 0.13389
H	 0.2091583625	-0.4677074008	-0.7592307826	 0.133667
H	 1.3358924858	-1.5591282989	 4.2491941319	 0.142573
H	-3.4286730397	-1.2451769883	 3.5657455399	 0.1934
44.2982	127.9157	155.616	177.6844	217.6255	318.9338	366.5653	482.1076	525.8487	558.9192	590.5465	647.0794	666.8707	677.2896	736.9683	793.2852	910.6525	913.2002	948.6239	981.0761	1066.881	1084.9902	1156.3173	1200.9388	1249.8478	1312.4011	1349.8387	1394.8383	1414.6267	1475.2162	1497.6874	1502.9756	1519.7309	1635.1133	2237.1114	3037.5486	3048.4014	3094.6663	3121.6833	3130.9943	3252.1187	3503.0866
CCC1=C(C=NO1)C#C	CCc1c(cno1)C#C	
InChI=1S/C7H7NO/c1-3-6-5-8-9-7(6)4-2/h1,5H,4H2,2H3	InChI=1S/C7H7NO/c1-3-6-5-8-9-7(6)4-2/h1,5H,4H2,2H3
