20
gdb 8158	3.69246	1.72023	1.54742	1.8372	74.02	-0.2503	0.0884	0.3387	940.049	0.177341	-349.017463	-349.009562	-349.008618	-349.049082	30.984	
C	 0.7035040604	 1.4297650501	 0.1017125626	-0.392612
C	-0.1110267056	 0.1450013166	-0.0943170224	 0.021636
C	 0.4099148323	-0.7130257841	-1.2864027049	-0.254187
C	 1.2647765374	-1.787481733	-0.650493001	-0.003047
O	 2.2231859716	-1.2789898407	 0.2931403864	-0.298361
C	 0.9998039269	-1.8574329791	 0.7939789376	 0.42411
C	 1.1533719798	-3.0903373237	 1.641691162	-0.484395
C	-0.0376554255	-0.8004138403	 1.1403425646	-0.28741
H	 1.7538579697	 1.1942863626	 0.2890942369	 0.140177
H	 0.6466356204	 2.0686473778	-0.7866413519	 0.104197
H	 0.3226509146	 2.008110312	 0.9508361493	 0.104119
H	-1.1524011705	 0.4287724374	-0.276493635	 0.069538
H	-0.4157087636	-1.192692053	-1.8266298556	 0.09684
H	 0.966568184	-0.1116969119	-2.0131264526	 0.105467
H	 1.5982557089	-2.648256568	-1.2270340824	 0.083765
H	 1.9178272019	-3.751305404	 1.2255609001	 0.128279
H	 1.4534408798	-2.8247230653	 2.6614966929	 0.126009
H	 0.2085225459	-3.6408438352	 1.704633735	 0.119042
H	 0.2190651583	-0.258919936	 2.057638312	 0.101947
H	-0.9992275167	-1.2977606423	 1.3178009165	 0.094885
135.0708	179.0967	210.7447	248.7221	291.6954	370.3519	376.6281	394.9919	448.276	579.9609	685.4194	738.0504	803.151	847.701	881.8879	894.2294	929.25	932.9525	992.8107	1020.6728	1028.5929	1048.3204	1086.6868	1134.1306	1158.0812	1202.6624	1226.6918	1254.5338	1264.1793	1313.3735	1328.4863	1350.4495	1367.6217	1401.7887	1412.3364	1458.719	1475.8654	1482.4928	1489.768	1496.3072	1505.0402	1511.4005	3026.2778	3028.989	3029.4307	3034.1793	3051.4838	3071.3291	3075.9301	3090.2252	3094.6648	3121.1649	3128.265	3132.5362
CC1CC2OC2(C)C1	C[C@H]1C[C@H]2O[C@@]2(C)C1	
InChI=1S/C7H12O/c1-5-3-6-7(2,4-5)8-6/h5-6H,3-4H2,1-2H3	InChI=1S/C7H12O/c1-5-3-6-7(2,4-5)8-6/h5-6H,3-4H2,1-2H3/t5-,6+,7-/m0/s1
