19
gdb 88932	3.89232	0.83025	0.72412	3.755	80.37	-0.2364	-0.0681	0.1683	1559.9358	0.157907	-419.203898	-419.194205	-419.193261	-419.239319	34.798	
C	 0.3283601996	 1.5890197231	-0.2092329251	-0.417874
C	 0.0429137938	 0.1140503861	-0.0270996588	-0.028112
C	 1.1705967334	-0.8830770992	 0.0855405539	-0.273437
C	 0.300492927	-0.5910309421	 1.2828836248	 0.045706
N	 0.8536505689	 0.1564012504	 2.3708324231	-0.327534
C	 1.5487676771	-0.4620387537	 3.3790461717	 0.280135
N	 1.8889959107	-1.693100223	 3.3489855516	-0.503901
C	 1.9072288497	 0.4627514373	 4.5228193243	 0.106251
O	 2.5273150876	 0.0965940955	 5.4856061912	-0.235138
H	 1.2313809744	 1.8902425176	 0.3292960874	 0.121195
H	 0.4810201284	 1.824180966	-1.2676343876	 0.126816
H	-0.5027458793	 2.2094603614	 0.1473958522	 0.113414
H	-0.8431541483	-0.2340435635	-0.5512699428	 0.092162
H	 1.0750784652	-1.853838821	-0.3863205524	 0.120042
H	 2.1806205523	-0.4898716095	 0.116110609	 0.120885
H	-0.3902714853	-1.3769507636	 1.5816168646	 0.104321
H	 0.4013884291	 1.0276235728	 2.6043809987	 0.243704
H	 2.4298211928	-1.8908836133	 4.1937940638	 0.233975
H	 1.5620557428	 1.5179192386	 4.4235530504	 0.07739
47.1136	74.643	105.2121	171.018	199.6465	231.5011	279.09	322.1415	395.7151	420.448	482.211	520.0081	585.9954	744.6818	768.2133	831.2243	873.2835	879.5113	923.742	953.61	994.3732	1026.0319	1053.1689	1064.4065	1108.6557	1133.2944	1154.1041	1189.7128	1196.0767	1268.2662	1322.7596	1378.5329	1412.888	1420.5649	1429.8499	1486.2745	1496.7817	1505.5957	1537.3162	1700.2037	1834.086	2864.5794	3027.2421	3087.1072	3108.1036	3119.4083	3142.2174	3145.454	3231.4483	3460.9595	3604.6116
CC1CC1NC(=N)C=O	C[C@H]1C[C@H]1NC(=N)C=O	
InChI=1S/C6H10N2O/c1-4-2-5(4)8-6(7)3-9/h3-5H,2H2,1H3,(H2,7,8)	InChI=1S/C6H10N2O/c1-4-2-5(4)8-6(7)3-9/h3-5H,2H2,1H3,(H2,7,8)/t4-,5+/m0/s1
