21
gdb 57558	3.84138	0.71972	0.69874	1.9875	82.05	-0.2587	0.0247	0.2834	1706.9374	0.177685	-424.185279	-424.174254	-424.17331	-424.221754	40.018	
C	-0.1086615943	 1.5152843125	-0.024040484	-0.406853
C	 0.0385684552	-0.0051027299	 0.0044866913	 0.344055
C	 0.7253282556	-0.4744912933	 1.2969277859	-0.412879
O	-1.2820446896	-0.5386371433	-0.0719961134	-0.470224
C	 0.820891119	-0.4803323908	-1.2288909506	-0.071635
O	 0.7661176957	-1.898307168	-1.2397179323	-0.266533
C	 1.3356458556	-2.4707766191	-2.4014314368	-0.202427
C	 1.2214805373	-3.9220255073	-2.3469116023	 0.273444
C	 1.1375182003	-5.1195061539	-2.3240499444	-0.409605
H	 0.8677113252	 2.0082654624	 0.0102186036	 0.109959
H	-0.6346981214	 1.8329316418	-0.9287726358	 0.119645
H	-0.6917295633	 1.8456887282	 0.8399803462	 0.12632
H	 0.1086630957	-0.2037993839	 2.1579613805	 0.119305
H	 0.8572974456	-1.5596107799	 1.2878734464	 0.126204
H	 1.7116080146	-0.0126649883	 1.4156199381	 0.104605
H	-1.1783281812	-1.4752793074	-0.2814224577	 0.284854
H	 0.3510006168	-0.0781118483	-2.1401245423	 0.092532
H	 1.8661552599	-0.133611674	-1.1962736606	 0.088967
H	 0.8297782172	-2.0899029063	-3.3046596238	 0.123762
H	 2.3969472381	-2.1837048127	-2.4885768038	 0.122832
H	 1.061833098	-6.1786130883	-2.2994307144	 0.203672
44.6362	78.3024	90.8573	154.7427	201.7127	208.5858	254.5868	302.1857	333.5272	334.7545	344.5788	408.3735	434.8538	456.4577	514.5341	597.9228	612.6819	681.0493	782.0431	906.8023	923.1178	949.5326	980.3107	989.203	1023.8215	1038.1905	1043.4118	1139.5091	1161.2719	1207.2328	1254.5251	1255.5325	1296.0241	1348.8985	1390.0333	1403.0588	1421.7878	1437.7486	1476.3803	1486.5569	1493.6133	1499.283	1509.9794	1515.5313	2248.8921	2957.9016	2970.6252	2979.8007	3009.3024	3036.7686	3043.551	3108.3034	3117.3773	3120.0237	3127.5836	3505.8335	3781.0207
CC(C)(O)COCC#C	CC(C)(O)COCC#C	
InChI=1S/C7H12O2/c1-4-5-9-6-7(2,3)8/h1,8H,5-6H2,2-3H3	InChI=1S/C7H12O2/c1-4-5-9-6-7(2,3)8/h1,8H,5-6H2,2-3H3
