18
gdb 62243	5.25085	0.53578	0.50235	1.9054	74.54	-0.2594	-0.0307	0.2287	2052.6349	0.14477	-439.102328	-439.092015	-439.091071	-439.139376	34.973	
O	-0.2985003742	 1.3156626378	 0.131906106	-0.405795
C	-0.0069838194	-0.0677250972	 0.0445142594	-0.02487
C	 0.7349142098	-0.4502377358	-1.2497022584	-0.203442
C	-0.0652439883	-0.0759010957	-2.5007924292	-0.201073
C	 0.6909537018	-0.3962708072	-3.8004676948	-0.281589
C	-0.0699054443	 0.0721991182	-5.0217259783	 0.160317
O	-0.3742784307	-0.6241249031	-5.9542118913	-0.23152
C	 0.7490215709	-0.5257329842	 1.2286085356	 0.256348
N	 1.3707791823	-0.8598049197	 2.1435284724	-0.310698
H	 0.5324382268	 1.7946368072	 0.2339149593	 0.296776
H	-0.983572247	-0.5656538222	 0.0590768807	 0.144004
H	 1.7111780621	 0.0524397051	-1.2558437928	 0.110896
H	 0.9401274826	-1.5268551272	-1.2308074309	 0.128613
H	-1.0221259805	-0.6133832717	-2.4947223241	 0.117566
H	-0.3097269878	 0.9913404658	-2.4619120036	 0.123376
H	 1.6570000127	 0.1302914435	-3.7941858553	 0.121156
H	 0.8909869185	-1.466882444	-3.9032943598	 0.126425
H	-0.3466968753	 1.1531354504	-4.9985839248	 0.073507
47.84	53.1375	80.5214	108.189	135.8997	189.4071	243.4646	290.6689	330.3568	353.8971	439.7327	523.3458	575.3377	592.873	744.5745	809.0858	856.9275	926.172	965.3099	1013.3709	1045.5314	1082.0033	1109.1664	1124.2877	1175.766	1242.0765	1267.0883	1293.5493	1320.7104	1339.552	1359.8586	1394.0483	1420.4563	1430.8451	1464.5627	1478.3669	1504.7538	1839.7906	2355.5611	2851.775	3008.1671	3021.8817	3033.7012	3054.0723	3066.0948	3083.4144	3100.9343	3798.4248
OC(CCCC=O)C#N	O[C@@H](CCCC=O)C#N	
InChI=1S/C6H9NO2/c7-5-6(9)3-1-2-4-8/h4,6,9H,1-3H2	InChI=1S/C6H9NO2/c7-5-6(9)3-1-2-4-8/h4,6,9H,1-3H2/t6-/m0/s1
