20
gdb 76051	2.52275	1.33415	1.11846	1.0804	86.85	-0.2223	0.0329	0.2552	1197.0457	0.16911	-365.938243	-365.928962	-365.928017	-365.97214	35.091	
C	-0.2179847345	 1.4637610966	-0.2527458045	-0.32134
N	 0.0070047576	 0.0333747839	-0.0779304078	-0.158251
C	 1.3911209233	-0.4864301706	-0.1894232914	-0.298092
C	 2.5090224561	 0.3801329299	-0.4339077633	 0.367164
C	 3.4525824457	 1.0963306431	-0.6489182095	-0.475256
C	 0.6607927855	-0.4176353064	 1.1233789652	 0.37846
C	 1.1197285955	 0.3759556599	 2.3566926213	-0.303876
C	 0.9988227472	-0.9445001564	 3.1759072161	-0.21146
C	 0.2185139262	-1.5966563377	 1.9956288309	-0.301118
H	 0.590520822	 2.0982983202	 0.1338928767	 0.120402
H	-0.3405932879	 1.6765913087	-1.3186876449	 0.12727
H	-1.1489301455	 1.7303910889	 0.2572536863	 0.121414
H	 1.4445861195	-1.4487454998	-0.69562353	 0.11032
H	 4.2863624462	 1.7243310287	-0.8439062494	 0.198681
H	 2.1032009658	 0.8480126212	 2.3033806342	 0.116508
H	 0.3856036721	 1.12848439	 2.662004974	 0.105172
H	 1.9699978351	-1.4152607744	 3.3441892821	 0.109327
H	 0.4734990985	-0.8789487694	 4.1303109733	 0.101643
H	-0.8648297423	-1.5962763379	 2.1497951866	 0.109549
H	 0.526636254	-2.5957472285	 1.6778556839	 0.103481
82.1569	125.556	138.5225	174.419	194.1684	231.7299	346.3347	359.0255	428.8212	521.7667	583.0247	588.1394	612.6269	659.8889	700.122	752.8427	788.1243	860.1642	879.9634	932.4647	952.9173	1019.5427	1027.5919	1067.4359	1089.8917	1129.5688	1152.7313	1169.6315	1188.1747	1217.5605	1239.2766	1248.9926	1270.8216	1278.9811	1335.0569	1414.8003	1456.934	1471.1981	1480.915	1488.0928	1500.0536	1505.9363	2225.4299	3009.8255	3051.3969	3055.7	3072.2967	3082.5865	3102.1134	3108.2115	3108.957	3116.295	3129.1641	3502.5713
CN1C(C#C)C11CCC1	CN1[C@@H](C#C)C21CCC2	
InChI=1S/C8H11N/c1-3-7-8(9(7)2)5-4-6-8/h1,7H,4-6H2,2H3	InChI=1S/C8H11N/c1-3-7-8(9(7)2)5-4-6-8/h1,7H,4-6H2,2H3/t7-,9?/m0/s1
