17
gdb 72347	2.50728	1.68488	1.35189	1.8577	78.78	-0.237	-0.0077	0.2293	1011.0367	0.13532	-380.822243	-380.814055	-380.813111	-380.854635	31.42	
C	-0.0125548426	 1.5044782736	 0.0428799846	-0.483293
C	-0.0029097698	-0.0019227838	-0.0045214463	 0.302191
C	-0.6420725907	-0.7238244428	-1.1981625438	-0.242237
N	-1.3736076916	-1.8673991326	-0.6283226224	-0.188605
C	-1.194541867	-1.8309366926	 0.6280517553	 0.040574
N	-0.4505811001	-0.7470830962	 1.1952415001	-0.177791
C	 1.0056248947	-0.7757489598	 0.7917410315	-0.274586
C	 1.6356941678	-1.9602369314	 0.2901479955	 0.373503
C	 2.194460915	-2.9392842563	-0.1290994221	-0.44681
H	 0.6233681686	 1.9198180922	-0.7463207081	 0.129106
H	-1.0283575508	 1.8862601764	-0.1043876738	 0.130626
H	 0.3520288961	 1.8704039242	 1.0061662713	 0.132488
H	-1.3399873487	-0.0633188818	-1.7258858177	 0.117501
H	 0.0845927663	-1.087973421	-1.932632949	 0.130112
H	-1.6074397171	-2.5674883541	 1.3103434163	 0.129733
H	 1.6141999517	-0.2037777444	 1.4883250984	 0.121948
H	 2.6817796682	-3.8082692996	-0.4972087196	 0.205542
128.7094	132.5417	181.8472	211.733	299.9482	327.1791	371.2082	450.6464	546.292	584.0154	614.5376	630.136	671.2596	732.8192	780.5279	827.2608	910.6247	937.7009	965.2777	976.8476	997.9794	1029.8984	1065.1537	1101.3539	1119.1091	1209.7702	1244.7272	1306.5398	1322.1303	1328.1938	1405.1007	1418.1091	1477.591	1487.6075	1491.6525	1682.5862	2234.3927	3033.9661	3038.6918	3073.3333	3100.5391	3119.5258	3133.6647	3194.4631	3501.4447
CC12CN=CN1C2C#C	C[C@]12CN=CN1[C@H]2C#C	
InChI=1S/C7H8N2/c1-3-6-7(2)4-8-5-9(6)7/h1,5-6H,4H2,2H3	InChI=1S/C7H8N2/c1-3-6-7(2)4-8-5-9(6)7/h1,5-6H,4H2,2H3/t6-,7+,9?/m0/s1
