20
gdb 57481	3.01461	1.28237	1.12196	1.0506	74.99	-0.2514	0.0143	0.2657	1163.8015	0.170498	-440.307634	-440.298486	-440.297542	-440.341269	34.69	
C	 0.0216198779	 1.5561034483	 0.0939706573	-0.420552
C	 0.0097068037	 0.022804955	 0.0244903156	 0.333861
C	 0.6711713272	-0.575368615	 1.267149297	-0.407654
O	-1.3330350746	-0.4618991031	 0.0175019859	-0.469236
C	 0.7182671172	-0.4575376288	-1.2681231338	 0.005058
C	 0.7204340882	-1.9961463159	-1.4604950108	-0.128118
O	 0.1857990788	-2.1891061638	-2.7979788204	-0.217053
C	-0.2208899312	-0.9677621762	-3.1919384276	 0.116852
N	-0.000471502	 0.0460117557	-2.4616461058	-0.295364
H	 1.0433779929	 1.9426174109	 0.1713469921	 0.10838
H	-0.431906875	 1.9843763337	-0.8032869419	 0.133833
H	-0.5411009759	 1.8872588993	 0.9711923625	 0.116354
H	 0.1530144057	-0.2271045408	 2.1648121343	 0.127026
H	 0.6240879753	-1.6678423554	 1.2607408846	 0.120379
H	 1.7200692273	-0.2709415048	 1.3334973963	 0.112624
H	-1.7474515798	-0.1027438476	-0.7772226863	 0.28264
H	 1.7357151518	-0.0474103248	-1.2794761147	 0.083668
H	 1.7105355717	-2.4529913231	-1.4252489939	 0.12054
H	 0.0477451975	-2.5006490747	-0.7629312597	 0.133292
H	-0.7210235969	-0.9495556189	-4.1546431509	 0.143468
81.8609	105.9895	205.3628	209.7149	239.0275	275.73	326.9921	351.136	384.9199	436.5166	472.9635	505.2722	586.6668	710.8635	792.5004	870.2741	888.4621	935.5258	959.7618	967.5136	969.5033	988.1321	997.6602	1031.8711	1060.8366	1137.7914	1152.281	1203.5324	1238.7032	1247.4451	1294.0692	1316.7361	1348.6323	1383.7836	1386.1053	1401.328	1421.1347	1478.1294	1486.6671	1500.2859	1505.7451	1511.8699	1698.1502	3025.036	3038.6344	3045.7274	3071.788	3108.7942	3117.8753	3119.8936	3128.9892	3129.7575	3209.7097	3776.2286
CC(C)(O)C1COC=N1	CC(C)(O)[C@H]1COC=N1	
InChI=1S/C6H11NO2/c1-6(2,8)5-3-9-4-7-5/h4-5,8H,3H2,1-2H3	InChI=1S/C6H11NO2/c1-6(2,8)5-3-9-4-7-5/h4-5,8H,3H2,1-2H3/t5-/m1/s1
