15
gdb 17141	4.24134	2.03161	1.65049	1.7053	72.77	-0.2346	0.0206	0.2553	794.766	0.118887	-325.390179	-325.383795	-325.382851	-325.420409	25.61	
C	 0.0293053802	-1.1128054493	-0.0552244935	-0.362037
C	 0.0027078579	 0.0883590445	 0.0073791969	 0.107144
C	-0.0184537008	 1.5153111155	 0.1002096317	 0.267931
C	-0.7631503173	 2.4231267316	 1.0936346473	-0.300157
C	-0.1047917644	 3.3656884668	 0.0868225512	-0.028777
C	 1.1882198729	 2.5119224998	-0.0554922883	-0.100813
C	 0.9949307925	 2.4940323289	-1.5651201834	-0.189738
N	-0.4591346723	 2.4296551239	-1.1040581546	-0.18177
H	 0.0473609537	-2.1730861011	-0.1139016766	 0.185441
H	-1.8537055609	 2.3630295435	 1.0622394241	 0.117894
H	-0.3809658868	 2.4385149486	 2.116809605	 0.106157
H	-0.198949087	 4.4455203735	-0.0269908612	 0.089714
H	 2.0947097964	 2.5429382777	 0.5577558897	 0.073652
H	 1.2275887441	 3.4066644832	-2.1227292338	 0.10236
H	 1.3161005318	 1.6067477729	-2.1181405944	 0.112999
143.3213	173.473	386.714	402.2532	501.804	515.952	564.2733	632.2112	657.773	697.278	771.146	838.5314	868.7196	883.8492	920.2754	938.9499	1000.4394	1025.6509	1049.2108	1077.931	1093.0722	1138.6823	1157.2049	1169.2644	1219.6249	1237.9295	1275.8971	1281.6356	1297.1301	1490.1665	1516.7119	2231.3787	3043.0847	3055.745	3064.2533	3108.6966	3122.0648	3132.3025	3500.7055
C#CC12CC3C1CN23	C#C[C@@]12C[C@H]3[C@@H]1CN23	
InChI=1S/C7H7N/c1-2-7-3-6-5(7)4-8(6)7/h1,5-6H,3-4H2	InChI=1S/C7H7N/c1-2-7-3-6-5(7)4-8(6)7/h1,5-6H,3-4H2/t5-,6-,7+/m0/s1
