19
gdb 36410	3.92487	1.08695	1.00527	5.4882	79.15	-0.2419	0.0376	0.2795	1219.4628	0.162385	-382.050318	-382.042801	-382.041856	-382.082756	29.51	
N	-0.0393929477	-1.2170871673	-0.1167031052	-0.308779
C	-0.0193559749	-0.0648170005	-0.0368908091	 0.277279
C	-0.0097511282	 1.3958052256	 0.0357927609	-0.37757
C	 1.4052109593	 1.9833297326	 0.1206097439	 0.066459
C	 1.4665778814	 3.5533598709	 0.1450885175	-0.266722
C	 2.2925499674	 3.6914017438	 1.4371877443	-0.021635
C	 3.3114764607	 2.5363356377	 1.2640980061	-0.174486
N	 2.1131570712	 1.6091251284	 1.3828908556	-0.119474
C	 1.5790718474	 2.6620385129	 2.34312554	-0.183916
H	-0.5083629543	 1.7887597656	-0.8579005584	 0.152732
H	-0.6167691966	 1.7079015297	 0.892291619	 0.149219
H	 1.9867906184	 1.5802194347	-0.7128439496	 0.099008
H	 1.9669279077	 3.968936685	-0.7334563901	 0.106474
H	 0.4793498159	 4.019679662	 0.227798993	 0.101699
H	 2.5658325156	 4.6960301515	 1.7640842852	 0.06871
H	 3.8703481161	 2.4504716966	 0.3273213065	 0.103133
H	 3.9781656804	 2.3963659527	 2.1171246916	 0.113697
H	 2.0417039811	 2.5271325761	 3.3224614021	 0.116793
H	 0.491910369	 2.7068555321	 2.4523333966	 0.097381
65.2985	119.6812	227.2065	298.8106	391.6602	406.3319	446.9443	538.4866	570.2622	675.6181	796.8182	839.0803	848.9039	854.1532	885.7269	903.2079	923.8233	950.739	972.5309	1010.366	1033.764	1051.5196	1073.3634	1104.3784	1106.692	1156.5631	1205.0341	1229.2057	1242.8394	1257.8683	1266.6426	1278.5349	1298.3764	1313.8454	1343.9592	1402.8216	1461.1258	1496.6179	1503.2146	1537.7322	2366.0566	3045.7654	3049.802	3055.337	3062.0457	3067.0994	3088.7801	3099.9775	3103.8449	3123.1712	3126.9793
N#CCC1CC2CN1C2	N#CC[C@H]1C[C@@H]2CN1C2	
InChI=1S/C7H10N2/c8-2-1-7-3-6-4-9(7)5-6/h6-7H,1,3-5H2	InChI=1S/C7H10N2/c8-2-1-7-3-6-4-9(7)5-6/h6-7H,1,3-5H2/t7-/m0/s1
