14
gdb 49396	4.22638	1.19304	1.06237	2.9725	66.64	-0.2647	-0.051	0.2137	1077.1524	0.100303	-436.640953	-436.6339	-436.632956	-436.673005	26.25	
O	 0.1704974155	-0.0610602839	 0.1441378403	-0.243514
C	 0.1054828696	 1.135755711	 0.0411237223	 0.158206
C	 1.3015636678	 2.0538190152	 0.0381401719	-0.118328
C	 1.2441017438	 3.054198524	-1.1365251213	-0.051191
C	 0.5304956446	 4.062433419	-0.3412790063	-0.050787
C	 1.066579363	 3.3163384206	 0.9402734668	-0.233598
C	 2.3336595712	 4.1126165003	 0.640644943	 0.451584
O	 3.2263699366	 4.5856133662	 1.2622810074	-0.299554
N	 1.9701146109	 4.3205079922	-0.7640405822	-0.201319
H	-0.8736926602	 1.6583641181	-0.0598372145	 0.082409
H	 2.216784763	 1.4787354672	 0.1996607161	 0.114759
H	 1.2040186092	 2.8346201896	-2.1949342276	 0.133083
H	-0.2503405305	 4.784790815	-0.5220767348	 0.138856
H	 0.6324960955	 3.2447051254	 1.9334405289	 0.119396
80.7545	126.0919	202.7979	266.7618	401.8421	471.2625	507.609	626.7604	728.3812	773.5467	786.7321	843.1257	870.4964	881.0854	899.0702	972.0462	989.427	1033.626	1049.4822	1055.1679	1109.1201	1141.3275	1158.6438	1188.9795	1220.6088	1238.1256	1300.5919	1319.9868	1428.4111	1831.1127	1933.7016	2867.5291	3092.4191	3170.1275	3212.5715	3248.5079
O=CC1C2C3C1C(=O)N23	O=C[C@H]1[C@H]2[C@H]3[C@@H]1C(=O)N23	
InChI=1S/C6H5NO2/c8-1-2-3-5-4(2)7(5)6(3)9/h1-5H	InChI=1S/C6H5NO2/c8-1-2-3-5-4(2)7(5)6(3)9/h1-5H/t2-,3-,4+,5-,7?/m1/s1
