25
gdb 120218	3.99602	0.84598	0.82486	0.0903	92.85	-0.2777	0.0894	0.367	1581.3336	0.231409	-352.355912	-352.346979	-352.346035	-352.389907	35.222	
C	 0.1224154199	 1.5594715699	 0.1864912297	-0.380029
C	 0.0391675635	 0.0394557394	 0.0229701144	-0.160914
C	 0.8389454996	-0.4814324426	-1.1791614773	-0.223181
C	 0.7960176122	-2.001309128	-1.3140842798	 0.061735
C	-0.5091956892	-2.6668401354	-1.8696376731	-0.015933
C	 0.0371798991	-2.3608092981	-3.2939103196	-0.230277
C	 1.4056719679	-2.6381109822	-2.6063327179	-0.030893
C	 1.292536281	-4.1425865891	-2.2888629003	-0.215203
C	-0.1716249419	-4.1644050411	-1.7247853109	-0.213481
H	 1.159565867	 1.8864512331	 0.3221214128	 0.112452
H	-0.2717639603	 2.0755560576	-0.6962172276	 0.112471
H	-0.4502518188	 1.9013153363	 1.0544329667	 0.109585
H	 0.4035060035	-0.4475849267	 0.9373827898	 0.092802
H	-1.0110882729	-0.261171348	-0.0810092496	 0.097007
H	 0.4751362901	 0.0096033661	-2.0895294231	 0.092793
H	 1.8875509348	-0.169847791	-1.0699131332	 0.089143
H	 1.1624085924	-2.4433321853	-0.3772858643	 0.050573
H	-1.5029185758	-2.3471156293	-1.5517871358	 0.05297
H	-0.2672361355	-3.0260690598	-4.1083595944	 0.082584
H	-0.0963439947	-1.3238856544	-3.6023182397	 0.096874
H	 2.3472090301	-2.2828218281	-3.0290930854	 0.050973
H	 1.4091814932	-4.7663021384	-3.1799809884	 0.091837
H	 2.0320674699	-4.4689818757	-1.5516945804	 0.092084
H	-0.2167013784	-4.5022718704	-0.6851964707	 0.092268
H	-0.8397938066	-4.800188519	-2.3131206319	 0.091762
71.8673	82.8065	121.7101	246.3889	280.6718	297.1848	301.438	356.7842	477.1297	555.5787	647.0855	735.2037	797.1609	831.4859	840.2175	841.884	879.9435	903.6112	907.2694	919.7101	942.7885	964.0559	1000.15	1013.8287	1038.9666	1047.9905	1081.4757	1084.7556	1107.1685	1121.8095	1145.5357	1175.5738	1208.3731	1227.1309	1239.3338	1258.585	1264.4636	1270.4112	1288.4138	1300.6676	1316.9206	1328.7879	1332.2411	1385.1736	1408.8325	1415.0761	1481.0077	1492.3235	1493.0602	1500.4182	1502.7349	1510.6832	1523.4882	3000.3203	3006.4309	3016.8859	3027.9631	3039.4783	3045.2402	3051.4802	3055.6392	3061.5946	3081.8218	3094.1084	3095.9685	3099.7062	3100.683	3101.4314	3130.6212
CCCC1C2CC1CC2	CCC[C@H]1[C@H]2C[C@@H]1CC2	
InChI=1S/C9H16/c1-2-3-9-7-4-5-8(9)6-7/h7-9H,2-6H2,1H3	InChI=1S/C9H16/c1-2-3-9-7-4-5-8(9)6-7/h7-9H,2-6H2,1H3/t7-,8+,9+
