20
gdb 78071	3.58892	1.02553	0.85916	3.8062	82.28	-0.2386	0.0053	0.2439	1378.3502	0.169552	-403.127913	-403.118766	-403.117822	-403.161796	34.001	
C	-0.3861995344	 1.5014812803	 0.3486179384	-0.410967
C	-0.1686416834	-0.0063564307	 0.3070627782	-0.019524
C	 0.1847802959	-0.5600204017	-1.0868320515	-0.034571
C	 1.5068026018	-1.0804059407	-0.5842269553	-0.058799
C	 1.224752082	-0.5592666094	 0.8369001354	-0.015369
C	 2.2366980463	 0.4591215235	 1.3484245897	-0.411928
N	 0.4203431444	-1.9851645247	-0.9472594487	-0.082298
C	 0.4581573754	-2.8583341808	-2.0181715674	 0.13234
O	-0.308903928	-2.850816558	-2.9514853715	-0.297133
H	 0.4083031937	 2.0496142273	-0.1670896265	 0.118199
H	-1.3320729167	 1.7577797352	-0.1402625906	 0.122325
H	-0.4345778892	 1.868953117	 1.3782392016	 0.12131
H	-1.0269322726	-0.5168133342	 0.7537075598	 0.087514
H	-0.0820304292	-0.1612976665	-2.0584303745	 0.117125
H	 2.4613910428	-1.1446063618	-1.0964665859	 0.104913
H	 1.1130196013	-1.3687799308	 1.5644987241	 0.084726
H	 2.4399558373	 1.2460428069	 0.6156597816	 0.11946
H	 1.8884359475	 0.9387218014	 2.2681974593	 0.123273
H	 3.1883067989	-0.0348792435	 1.5726948208	 0.118396
H	 1.2369209464	-3.6337091187	-1.880878917	 0.081007
85.6112	125.7376	141.8514	219.5422	229.6905	245.3301	285.4617	321.9114	353.9729	415.1564	503.347	683.4877	748.6063	750.3458	797.9889	863.1043	885.0032	920.2256	963.1182	997.42	1027.4079	1032.8816	1047.7294	1100.75	1106.6377	1119.9127	1151.9194	1177.004	1238.9664	1245.5041	1255.1178	1295.8612	1354.0413	1360.1264	1408.0163	1410.2668	1418.0201	1427.8431	1486.8229	1491.9606	1504.2379	1511.7912	1791.8122	2945.0277	3032.9866	3038.3331	3053.7938	3066.0764	3097.3956	3102.3966	3105.3171	3114.9251	3170.5935	3196.1292
CC1C2C(C1C)N2C=O	C[C@H]1[C@H]2[C@@H]([C@H]1C)N2C=O	
InChI=1S/C7H11NO/c1-4-5(2)7-6(4)8(7)3-9/h3-7H,1-2H3	InChI=1S/C7H11NO/c1-4-5(2)7-6(4)8(7)3-9/h3-7H,1-2H3/t4-,5+,6+,7-,8?
