19
gdb 112091	3.12177	1.28263	1.00311	0.498	76.71	-0.2403	0.0263	0.2666	1196.8808	0.160108	-423.015666	-423.007373	-423.006429	-423.048734	31.571	
O	 0.1497919505	 1.298196306	-0.1934900744	-0.423001
C	 0.0196060945	-0.1159323824	-0.2133896591	-0.078249
C	-1.4454940753	-0.4591264181	 0.0953903857	-0.071721
C	-2.3716413342	 0.0828576264	-0.9624121539	-0.045745
C	-3.356050722	-0.6050811175	-1.5350140479	-0.068868
C	-3.7024700314	-2.0312602553	-1.2068467664	-0.297907
C	-2.6838663724	-2.7109168371	-0.3215487532	 0.054594
O	-1.3467222611	-2.7878890918	-0.8262203334	-0.26377
C	-1.5974985221	-1.9499079375	 0.3110425852	 0.023511
H	 1.01124585	 1.5267237177	-0.5533273041	 0.288985
H	 0.2846485857	-0.5367022339	-1.1931200243	 0.108926
H	 0.6722013913	-0.5837784637	 0.541572983	 0.083499
H	-1.6782673674	 0.0345992908	 1.0519708334	 0.09399
H	-2.1832390206	 1.1118951678	-1.2519912254	 0.103951
H	-3.9729971082	-0.1253976067	-2.2910265272	 0.086991
H	-4.6816957106	-2.0752409713	-0.7071591561	 0.112975
H	-3.8212368371	-2.6149544073	-2.1305882054	 0.118859
H	-3.0213873806	-3.6270222196	 0.1648150178	 0.086695
H	-1.167974399	-2.3321652665	 1.2385990757	 0.086288
78.252	122.2759	177.0632	231.4842	266.0048	327.3049	372.7957	408.6539	504.107	540.2125	653.3955	724.8225	770.0803	813.2848	862.0154	909.2355	919.174	941.0078	1000.7007	1018.49	1035.6782	1059.9114	1073.8797	1087.8338	1135.1515	1151.3787	1199.4579	1224.4226	1239.081	1256.5218	1291.6502	1319.0806	1357.9488	1372.1233	1377.3936	1425.0296	1449.7101	1464.6575	1480.977	1522.3648	1733.9057	2968.219	2986.9894	3000.8673	3025.8904	3029.7329	3089.8754	3104.4678	3151.4062	3185.844	3837.5807
OCC1C=CCC2OC12	OC[C@H]1C=CC[C@H]2O[C@@H]12	
InChI=1S/C7H10O2/c8-4-5-2-1-3-6-7(5)9-6/h1-2,5-8H,3-4H2	InChI=1S/C7H10O2/c8-4-5-2-1-3-6-7(5)9-6/h1-2,5-8H,3-4H2/t5-,6-,7+/m1/s1
