24
gdb 101244	2.3018	1.14332	1.01146	2.7738	86.52	-0.2341	0.0743	0.3085	1371.1459	0.215048	-405.528315	-405.517583	-405.516638	-405.563629	40.425	
C	-1.1083967599	 2.0910234736	 1.2833061621	-0.381563
C	-0.7342079624	 1.2964557102	 0.0301512495	 0.028765
C	 0.7099674301	 0.7732673361	 0.1002598489	-0.051038
O	 0.8804911702	-0.1357771636	 1.1686377934	-0.424269
N	-1.5960984853	 0.1131837042	-0.0682637857	-0.12496
C	-2.9918068959	 0.2660422105	-0.4641055943	-0.296205
C	-2.0312687525	-0.4507079252	-1.3571250569	 0.337637
C	-1.6406505356	 0.1901503081	-2.6770710162	-0.459553
C	-2.0414503834	-1.9671754299	-1.3883420839	-0.441225
H	-0.4964290094	 2.9954927265	 1.3546318644	 0.111993
H	-2.1595560848	 2.3930455525	 1.2603574133	 0.109951
H	-0.936441503	 1.4883334886	 2.1781608053	 0.132938
H	-0.8206557347	 1.9567947837	-0.8473566308	 0.055866
H	 0.9709111292	 0.3074669061	-0.8649994737	 0.077828
H	 1.4045743116	 1.6048668344	 0.2626107797	 0.09928
H	 0.0899049293	-0.6933453806	 1.1447680225	 0.282736
H	-3.7227392779	-0.2813500782	 0.1272059346	 0.109938
H	-3.3219547455	 1.2544110558	-0.7830990054	 0.105453
H	-1.7196865191	 1.2789302866	-2.6611554085	 0.123573
H	-0.6148181528	-0.0752714156	-2.9574034335	 0.123946
H	-2.3011828452	-0.1743036747	-3.4710481553	 0.122831
H	-2.7671423131	-2.337680207	-2.1211500559	 0.114716
H	-1.0561389996	-2.3583118808	-1.6675116347	 0.11892
H	-2.3007552804	-2.371096431	-0.4068301491	 0.122439
63.7872	107.4069	157.0184	174.8727	209.3708	219.3745	233.2206	267.6668	309.8909	363.6548	377.3494	403.0442	424.1055	515.5052	520.9938	631.6839	721.5979	743.5483	857.1129	906.8396	923.207	941.2724	960.7385	985.9059	1004.4702	1026.797	1077.4132	1099.1198	1128.2887	1134.1496	1140.5933	1153.9548	1191.5895	1250.3107	1288.204	1327.6648	1355.4226	1381.0611	1383.2927	1406.5936	1413.0524	1421.5744	1444.1738	1481.1322	1487.5287	1489.7297	1498.275	1500.8686	1505.262	1512.5108	1516.0391	2958.033	2976.0039	3027.3235	3035.4493	3043.2622	3065.2448	3082.6038	3087.5821	3093.1369	3110.3172	3121.283	3124.7614	3130.4917	3165.1106	3736.4041
CC(CO)N1CC1(C)C	C[C@@H](CO)N1CC1(C)C	
InChI=1S/C7H15NO/c1-6(4-9)8-5-7(8,2)3/h6,9H,4-5H2,1-3H3	InChI=1S/C7H15NO/c1-6(4-9)8-5-7(8,2)3/h6,9H,4-5H2,1-3H3/t6-,8?/m0/s1
