19
gdb 76156	2.10714	1.47113	1.20559	5.2029	77.64	-0.2296	0.023	0.2525	1138.6107	0.158464	-415.36486	-415.354367	-415.353423	-415.399546	38.532	
C	-0.0881416757	 1.5674857986	 0.0352028406	-0.420475
C	-0.0059302157	 0.0565411281	-0.0162269459	 0.264294
N	-1.2226652158	-0.5366433001	-0.5193527674	-0.570393
C	 1.3324552984	-0.6216983583	-0.2933503103	-0.146557
N	 2.5261006397	 0.1679694299	-0.4024495366	-0.51376
C	 0.7040943348	-0.6594064104	 1.1278253084	 0.140255
N	 1.2953849451	 0.1303545811	 2.1895508787	-0.57222
C	 0.1697745797	-1.9253129987	 1.5527989932	 0.264156
N	-0.259984962	-2.9528863038	 1.870118916	-0.361372
H	 0.8468655986	 2.026764761	 0.3551850352	 0.127249
H	-0.3382859204	 1.953945071	-0.9598182054	 0.108865
H	-0.8837746358	 1.8679295722	 0.7207169013	 0.14273
H	-1.251271012	-0.4871938503	-1.5336551093	 0.226403
H	-1.3108211998	-1.5127575889	-0.2571875309	 0.246487
H	 1.265248466	-1.5525987503	-0.8574760404	 0.087981
H	 3.3535446593	-0.4187060569	-0.414209287	 0.24276
H	 2.5298490901	 0.7232525645	-1.2513552855	 0.244677
H	 1.6584413267	-0.4906460373	 2.9060103322	 0.240127
H	 2.0965349188	 0.6162258887	 1.786495463	 0.248794
112.4063	127.5029	152.8143	157.791	176.0371	216.5478	233.7978	282.1784	303.0878	321.3501	392.8164	437.0046	468.016	544.3017	577.2623	614.4256	683.458	726.7063	778.255	829.9038	899.4213	957.7757	973.5081	995.5105	1042.6649	1076.1852	1131.7146	1193.1215	1226.3372	1246.075	1295.6274	1324.546	1356.804	1417.5387	1439.2233	1486.1091	1495.3656	1647.8629	1653.5404	1657.8947	2338.3889	3040.4782	3088.9594	3112.9734	3156.0295	3452.6906	3492.3037	3505.4428	3558.7247	3577.4041	3581.8515
CC1(N)C(N)C1(N)C#N	C[C@@]1(N)[C@@H](N)[C@]1(N)C#N	
InChI=1S/C5H10N4/c1-4(8)3(7)5(4,9)2-6/h3H,7-9H2,1H3	InChI=1S/C5H10N4/c1-4(8)3(7)5(4,9)2-6/h3H,7-9H2,1H3/t3-,4-,5-/m1/s1
