16
gdb 28959	2.92967	1.53815	1.01489	2.3527	88.62	-0.2386	-0.0413	0.1973	1126.7854	0.124792	-363.647017	-363.638971	-363.638027	-363.679651	30.333	
C	-0.0384259819	 1.5193906201	-0.0018714007	-0.507639
C	-0.0102681973	 0.0149473947	-0.0144687101	 0.239202
C	-0.0240800241	-0.7106097831	-1.2034060614	-0.149591
C	 0.0030809206	-2.0996717398	-1.1715699053	-0.114257
C	 0.0438294986	-2.7299094009	 0.0691499135	-0.019333
N	 0.0581628698	-2.0720455141	 1.2257792477	-0.319162
C	 0.0317328297	-0.7289945886	 1.1846208682	 0.098821
C	 0.0479579879	-0.0465907591	 2.4429640341	 0.24721
C	 0.060611224	 0.5582546317	 3.4838701925	-0.395929
H	 0.8449135278	 1.9282717367	 0.4999293463	 0.144351
H	-0.0726310642	 1.9189672731	-1.0185435545	 0.119468
H	-0.9089125447	 1.8951027349	 0.5461055395	 0.144381
H	-0.0561842264	-0.1821841197	-2.1515708076	 0.103558
H	-0.0070523494	-2.6831533456	-2.085372973	 0.10475
H	 0.0660158297	-3.8149285954	 0.1373831366	 0.10847
H	 0.0723264499	 1.0738648451	 4.4122700542	 0.195699
97.2412	121.7645	149.4772	221.9263	337.2088	372.7137	468.4505	478.4508	544.1003	580.4657	602.2866	617.0613	654.1027	725.246	802.2315	817.3359	852.5879	962.8235	992.0699	1009.7446	1067.718	1082.0804	1131.1034	1194.3012	1260.2203	1286.1235	1305.496	1417.5046	1446.549	1475.802	1478.2465	1498.002	1595.003	1626.6796	2225.8962	3037.2852	3093.4134	3119.5582	3155.2204	3172.8547	3199.5273	3501.3842
CC1=CC=CN=C1C#C	Cc1cccnc1C#C	
InChI=1S/C8H7N/c1-3-8-7(2)5-4-6-9-8/h1,4-6H,2H3	InChI=1S/C8H7N/c1-3-8-7(2)5-4-6-9-8/h1,4-6H,2H3
