16
gdb 19624	4.80091	2.00556	1.8587	2.757	67.68	-0.2332	0.0743	0.3076	757.6332	0.132633	-342.677785	-342.671859	-342.670915	-342.707506	24.35	
C	 0.0663666431	 1.4411724729	-0.0177615225	-0.33612
N	 1.2787866665	 0.5801556228	-0.0008659688	-0.381645
C	-0.0411413068	-0.0275758634	-0.0105997408	 0.441999
C	-0.6542892495	-0.9181195709	 1.0408064875	-0.135393
C	-1.6933377049	-1.3751949191	 0.0823112894	-0.038454
C	-0.7112516642	-0.9154727802	-1.0688766103	-0.208412
C	-0.0121585584	-2.2653670985	-0.8226149768	-0.14833
N	-0.6575172908	-2.3403160913	 0.5342251986	-0.152572
H	-0.0941151323	 2.0135362274	 0.8921691369	 0.122915
H	-0.1855708186	 1.9708703948	-0.9335247326	 0.11282
H	 1.6982330751	 0.5451795997	-0.9279362607	 0.228849
H	-0.7047051584	-0.7852888545	 2.1127541928	 0.103819
H	-2.7619970587	-1.5187016087	 0.1628949411	 0.101802
H	-0.9548322579	-0.5331310273	-2.0588825935	 0.074789
H	-0.4081087586	-3.0815116201	-1.4317229906	 0.108798
H	 1.0837301442	-2.2890399635	-0.8237639198	 0.105135
175.9687	261.6785	306.879	461.4636	500.6621	607.1477	755.1445	760.1477	796.2046	827.3315	876.4325	888.2695	921.2344	941.9049	954.3574	961.6297	976.4575	1002.2895	1010.8219	1044.0174	1079.8732	1123.6858	1143.8611	1161.8597	1183.6766	1193.3993	1218.1114	1254.9743	1278.5717	1288.5516	1321.11	1442.8846	1503.2328	1523.0913	3037.4941	3101.4931	3106.6151	3128.4175	3185.3563	3206.949	3220.9494	3484.9536
C1NC11C2C3C1CN23	C1N[C@]21[C@H]1[C@H]3[C@@H]2CN13	
InChI=1S/C6H8N2/c1-3-4-5(8(1)4)6(3)2-7-6/h3-5,7H,1-2H2	InChI=1S/C6H8N2/c1-3-4-5(8(1)4)6(3)2-7-6/h3-5,7H,1-2H2/t3-,4+,5+,6-,8?/m0/s1
