17
gdb 24709	3.72304	1.50061	1.0847	1.4168	81.71	-0.2308	-0.0075	0.2233	1070.9684	0.139592	-384.762405	-384.755519	-384.754574	-384.794251	26.76	
C	-0.0316456797	 1.5058890551	 0.0848810718	-0.171074
O	 1.2240683659	 1.9429010456	-0.4332843916	-0.272472
C	 2.1106605497	 0.8407321862	-0.6216213142	-0.171074
C	 1.2765130057	-0.3909486035	-0.3939468266	 0.242374
C	 1.595427036	-1.7362105432	-0.5280464806	-0.246988
C	 0.6170553431	-2.6874213937	-0.2376961082	-0.103804
C	-0.654371456	-2.2926607115	 0.1816025218	-0.103804
C	-0.9684203843	-0.9401708832	 0.317474246	-0.246988
C	 0.0084659015	 0.0027627296	 0.0242372277	 0.242374
H	-0.1660829826	 1.8723169186	 1.1154437862	 0.10733
H	-0.8378011134	 1.9382950204	-0.5237793132	 0.113679
H	 2.5320328422	 0.8920075327	-1.6351030341	 0.113679
H	 2.95214836	 0.9041486111	 0.0870950593	 0.10733
H	 2.5831165198	-2.0475176838	-0.8537484199	 0.097085
H	 0.8459231027	-3.743016244	-0.3400344515	 0.097633
H	-1.4052326164	-3.0440630929	 0.4023649613	 0.097633
H	-1.9584890365	-0.6374110939	 0.6440090518	 0.097085
52.8519	186.7648	225.2148	376.0951	424.0664	506.4566	520.6281	603.3118	711.9405	718.2843	764.611	844.4496	856.7296	885.5659	923.9725	935.0832	972.0758	1020.8602	1047.5239	1063.5684	1089.0208	1120.8385	1180.2177	1182.084	1196.3809	1221.5158	1247.1927	1287.192	1334.1072	1353.8887	1403.8548	1490.3369	1510.5735	1513.8942	1526.724	1633.0386	1651.5743	2967.6914	2973.8657	3013.3562	3017.2833	3166.8824	3172.289	3183.4046	3196.5758
C1OCC2=CC=CC=C12	C1OCc2ccccc12	
InChI=1S/C8H8O/c1-2-4-8-6-9-5-7(8)3-1/h1-4H,5-6H2	InChI=1S/C8H8O/c1-2-4-8-6-9-5-7(8)3-1/h1-4H,5-6H2
