18
gdb 120286	3.27015	1.21316	1.1425	1.3274	71.61	-0.2359	0.0163	0.2523	1159.1883	0.147825	-439.064803	-439.056631	-439.055687	-439.098278	30.126	
C	 0.1855728935	 1.4381869189	 0.1995859503	-0.386204
C	-0.0622230127	-0.0209984392	 0.5356673985	-0.040592
O	 1.2041993252	-0.6620188383	 0.6879298096	-0.245956
C	 1.1071679607	-1.9987864133	 1.0104053585	 0.077623
C	 2.1599679546	-2.594010017	 1.8912716485	-0.003443
O	 2.908366109	-1.6732867859	 2.6650093974	-0.2012
C	 2.0035436377	-1.0564507511	 3.4677799808	 0.118086
N	 0.792037014	-1.4448719715	 3.4442686232	-0.258674
C	 0.7209307585	-2.4530336127	 2.4168555095	-0.09849
H	 0.7600102262	 1.5305423652	-0.7265714442	 0.126514
H	-0.7653823108	 1.9640894103	 0.0730196822	 0.116886
H	 0.7469489675	 1.9250290457	 1.0019809939	 0.128798
H	-0.6363016813	-0.1216748071	 1.4665020848	 0.117969
H	-0.632358748	-0.5146597716	-0.267147482	 0.087687
H	 0.7484882753	-2.6549316862	 0.2149261701	 0.096924
H	 2.7107522219	-3.4936050996	 1.6493171515	 0.116042
H	 2.412411288	-0.2733533712	 4.0932774012	 0.145881
H	 0.0138820606	-3.2610171353	 2.5615192063	 0.10215
62.3483	95.4187	135.6371	214.167	258.6581	294.3073	378.0316	513.1212	607.5116	690.1841	740.5668	766.8811	816.17	824.3052	878.6589	900.0785	937.93	963.4126	1022.43	1027.4733	1071.0991	1079.7332	1093.0551	1112.0042	1136.6453	1161.1904	1186.042	1240.7509	1282.9788	1298.3998	1324.9044	1350.8285	1387.5989	1407.1896	1450.7579	1483.0772	1499.66	1522.5816	1664.1491	2980.3691	3035.6621	3045.6154	3084.9661	3120.2867	3122.6016	3181.3851	3198.4543	3238.4169
CCOC1C2OC=NC12	CCO[C@H]1[C@H]2OC=N[C@@H]12	
InChI=1S/C6H9NO2/c1-2-8-5-4-6(5)9-3-7-4/h3-6H,2H2,1H3	InChI=1S/C6H9NO2/c1-2-8-5-4-6(5)9-3-7-4/h3-6H,2H2,1H3/t4-,5+,6-/m0/s1
