14
gdb 69237	2.77228	1.64452	1.18831	1.3115	63.02	-0.2617	-0.0391	0.2226	987.3592	0.101359	-473.883184	-473.875703	-473.874758	-473.915099	28.501	
O	 0.0110205233	 1.3980021383	-0.0682947309	-0.467208
C	-0.0404771158	 0.0215731489	-0.01242578	 0.33664
C	-0.4112973706	-0.8157321113	-1.208823518	-0.343
C	-1.3092055839	-0.794453403	 0.0279471648	-0.249578
C	-1.0562382207	-1.916047884	 0.9972524473	 0.438076
O	-1.8162504469	-2.755147959	 1.4004885667	-0.338919
N	 0.2948194652	-1.8088358809	 1.3822021056	-0.377944
C	 0.9026341121	-0.6382684285	 0.95993338	 0.366526
O	 1.9633084707	-0.1867588388	 1.3202070492	-0.366843
H	 0.8990300782	 1.6412785448	 0.2305891749	 0.304494
H	-0.7858051421	-0.249537266	-2.0544442383	 0.146031
H	 0.1406323029	-1.7163354256	-1.4556847266	 0.136863
H	-2.3038872668	-0.3760531335	-0.0367931865	 0.137744
H	 0.7175589144	-2.4428202614	 2.0450060817	 0.27712
122.9167	142.1706	240.2074	300.0728	315.6503	368.419	440.3479	525.1588	564.717	610.5748	643.7623	725.9283	762.5939	780.8646	821.2578	877.4229	931.5953	968.2039	995.1624	1062.2002	1067.7115	1131.1774	1196.1205	1237.9593	1322.8667	1347.6973	1394.4462	1430.9523	1492.464	1831.1102	1876.4537	3133.4452	3223.2863	3232.0295	3626.1578	3748.2981
OC12CC1C(=O)NC2=O	O[C@]12C[C@H]1C(=O)NC2=O	
InChI=1S/C5H5NO3/c7-3-2-1-5(2,9)4(8)6-3/h2,9H,1H2,(H,6,7,8)	InChI=1S/C5H5NO3/c7-3-2-1-5(2,9)4(8)6-3/h2,9H,1H2,(H,6,7,8)/t2-,5+/m0/s1
