22
gdb 113774	2.88544	1.01368	0.96965	2.1705	81.94	-0.2438	0.0668	0.3106	1361.3403	0.193753	-404.302211	-404.292461	-404.291517	-404.337547	36.721	
C	-1.782408431	 2.0419934596	 2.0241638279	-0.443859
C	-0.9988496261	 1.0207156514	 1.2205505777	 0.361766
C	 0.2432181355	 1.4875503942	 0.4897684651	-0.285167
C	 0.3738517296	 0.6404863864	 1.7293865414	-0.316322
C	-1.808192767	-0.0956381012	 0.5856133842	-0.119146
N	-3.2696117914	 0.0646480722	 0.4892500797	-0.350299
C	-2.4735196692	-0.018910223	-0.7488803463	-0.031583
C	-2.5218748978	 1.2314082099	-1.5956532462	-0.067093
O	-3.8137808268	 1.4176986188	-2.1515799494	-0.424396
H	-1.1062359658	 2.7856739411	 2.4576954398	 0.104053
H	-2.5181525049	 2.5652914309	 1.4076499207	 0.124553
H	-2.3305481065	 1.5619722624	 2.8415578248	 0.116356
H	 0.4748866337	 1.025954226	-0.4645814924	 0.110028
H	 0.5079422078	 2.5381205116	 0.5517380063	 0.110688
H	 0.7276742466	 1.1096554361	 2.6414189887	 0.110009
H	 0.6971444876	-0.3889786216	 1.6068695059	 0.106575
H	-1.4614412198	-1.0931335764	 0.8541482928	 0.083673
H	-3.7390708989	-0.8148794836	 0.6825838819	 0.234189
H	-2.541747476	-0.9468216698	-1.314915273	 0.086429
H	-2.212911347	 2.1000408988	-0.9986587373	 0.097613
H	-1.8307399234	 1.1470369429	-2.4409476796	 0.104324
H	-4.4215593591	 1.4133574834	-1.402406223	 0.287609
30.7994	81.0681	126.2978	196.6438	210.5953	276.4006	305.0629	341.6275	372.7401	434.0687	447.754	495.6433	594.6388	699.5635	785.5568	823.7562	853.8116	866.5972	918.4075	931.5125	954.9155	970.2743	991.7599	1003.6881	1043.09	1069.1663	1075.0803	1082.0031	1116.2523	1129.8362	1175.9054	1192.7462	1207.5207	1253.2701	1272.3526	1316.1966	1333.0521	1361.4783	1401.7089	1419.0468	1440.4454	1465.6549	1466.8358	1484.7814	1495.2292	1501.4559	1507.643	3016.3393	3035.7158	3074.8161	3099.0301	3100.5483	3112.8149	3120.2716	3121.0178	3126.7697	3199.6944	3215.5425	3512.9851	3788.1179
CC1(CC1)C1NC1CO	CC1(CC1)[C@H]1N[C@H]1CO	
InChI=1S/C7H13NO/c1-7(2-3-7)6-5(4-9)8-6/h5-6,8-9H,2-4H2,1H3	InChI=1S/C7H13NO/c1-7(2-3-7)6-5(4-9)8-6/h5-6,8-9H,2-4H2,1H3/t5-,6-/m0/s1
