25
gdb 60057	2.80871	0.98699	0.93716	1.6086	88.92	-0.2397	0.0753	0.3149	1465.62	0.22698	-389.490364	-389.479651	-389.478707	-389.526465	39.846	
C	 0.092512105	 1.5830629829	-0.1954052865	-0.378934
C	-0.0092453585	 0.0524571071	-0.1165964666	 0.026206
C	 0.618621742	-0.593601346	-1.3605856894	-0.387498
C	 0.641789414	-0.5224271521	 1.1564647283	-0.219482
C	 0.0172105121	-0.1547579262	 2.5071264514	 0.429571
C	-1.4693847092	-0.4768710928	 2.6040554068	-0.436005
C	 0.8596881559	-0.6138565413	 3.730264074	-0.33052
C	 1.0108120163	 0.888658462	 4.0269906268	-0.065933
O	 0.2500217588	 1.2474119687	 2.8592813113	-0.317189
H	 1.1427306126	 1.8973085497	-0.2277301561	 0.106155
H	-0.3932385738	 1.9547189476	-1.1043291819	 0.098369
H	-0.3622451262	 2.0690230559	 0.6694731411	 0.138744
H	-1.073310624	-0.2198835708	-0.1096724851	 0.071361
H	 1.6909212189	-0.3703997016	-1.41800572	 0.11034
H	 0.5057430219	-1.683192682	-1.3506334109	 0.104719
H	 0.1537458114	-0.2156921827	-2.2772200363	 0.108122
H	 0.6360469356	-1.6201167843	 1.0922166258	 0.088805
H	 1.6980730894	-0.221959313	 1.1814124086	 0.089479
H	-1.6549908206	-1.534291718	 2.3844691119	 0.112294
H	-1.8410045546	-0.2633135274	 3.610405624	 0.113387
H	-2.0482341038	 0.1265756575	 1.899403425	 0.129599
H	 0.3167862575	-1.195042525	 4.47802173	 0.104321
H	 1.7857602351	-1.1330403253	 3.4756627015	 0.105057
H	 0.53444134	 1.2407874184	 4.9507352203	 0.098664
H	 2.0331882741	 1.2843077484	 3.9892967759	 0.100369
48.4319	57.7007	110.276	172.2833	218.4936	223.8998	248.2166	287.2423	307.402	348.6377	369.8515	415.8365	450.2702	479.5868	706.5174	784.5669	815.9824	849.9958	868.7674	905.9789	927.1369	934.5832	964.7352	972.0237	991.6953	999.0506	1030.0353	1066.3585	1115.5564	1162.7863	1170.8242	1196.4552	1210.6926	1214.9714	1255.572	1271.4572	1304.0758	1328.1335	1354.4046	1368.6176	1394.4814	1402.6979	1407.803	1425.7474	1465.9653	1482.4241	1486.2567	1489.2464	1493.5973	1497.4483	1504.5931	1508.8396	1533.372	3001.6406	3010.7853	3011.7929	3021.9331	3029.1858	3034.7247	3044.526	3048.1577	3073.1516	3084.2556	3090.7607	3096.4102	3105.0602	3115.8968	3127.5323	3135.3465
CC(C)CC1(C)CCO1	CC(C)C[C@@]1(C)CCO1	
InChI=1S/C8H16O/c1-7(2)6-8(3)4-5-9-8/h7H,4-6H2,1-3H3	InChI=1S/C8H16O/c1-7(2)6-8(3)4-5-9-8/h7H,4-6H2,1-3H3/t8-/m1/s1
