18
gdb 59162	2.78258	1.22369	1.08365	4.0101	72.18	-0.2453	0.0072	0.2525	1181.5078	0.146749	-439.071843	-439.06308	-439.062136	-439.105734	32.839	
C	 0.238188901	 1.305123285	 0.3170203824	-0.399301
C	-0.1378946152	-0.1452609243	 0.0020204892	 0.086244
O	-1.5218954485	-0.2678524278	-0.3106608157	-0.431928
C	 0.6023448437	-0.6579711921	-1.2142384013	 0.007063
C	 1.9942978211	-1.2105383149	-1.2238983215	-0.038248
N	 2.305726665	-2.0159953567	-0.0385960822	-0.343031
C	 1.1960156618	-2.8624737231	-0.2478352338	 0.414285
O	 0.763946597	-3.7755480975	 0.3945875713	-0.340706
C	 0.827427187	-2.1387535267	-1.5367148114	-0.246972
H	 1.3051077857	 1.3956899794	 0.5464756966	 0.11507
H	 0.0080570233	 1.9530462932	-0.5345813839	 0.126356
H	-0.3228567073	 1.6702379443	 1.1844877273	 0.109931
H	 0.1082621777	-0.7742826252	 0.8703244283	 0.07705
H	-2.0269021615	 0.0038972401	 0.4622502848	 0.284534
H	 0.3576211532	-0.0911241841	-2.1122971628	 0.105984
H	 2.7874595767	-0.8840529937	-1.8837384549	 0.113968
H	 2.5418729877	-1.6295664607	 0.868513776	 0.240724
H	 0.5196557117	-2.5807035851	-2.4730715983	 0.118979
48.5355	103.463	167.8427	237.109	248.9018	268.9387	343.0903	428.6376	460.8343	491.5339	552.8751	621.904	737.2453	763.2514	804.9527	838.3175	877.0655	913.6464	925.772	974.425	1022.0799	1057.3694	1062.5141	1082.2513	1098.791	1132.9385	1137.8253	1173.2443	1273.0525	1276.6937	1315.5084	1329.2744	1359.6935	1379.1531	1405.4761	1457.4012	1491.1084	1503.4603	1898.6051	2992.5564	3029.6987	3097.5949	3112.0004	3122.9424	3200.777	3230.75	3545.1918	3819.1861
CC(O)C1C2NC(=O)C12	C[C@@H](O)[C@H]1[C@H]2NC(=O)[C@@H]12	
InChI=1S/C6H9NO2/c1-2(8)3-4-5(3)7-6(4)9/h2-5,8H,1H3,(H,7,9)	InChI=1S/C6H9NO2/c1-2(8)3-4-5(3)7-6(4)9/h2-5,8H,1H3,(H,7,9)/t2-,3-,4+,5-/m1/s1
