20
gdb 59088	2.33274	1.28249	1.1238	5.1315	77.55	-0.2363	0.0268	0.2632	1217.1468	0.168343	-440.279053	-440.268906	-440.267961	-440.314122	36.542	
C	-0.1275765491	 1.6102038144	 0.1200262915	-0.409628
C	-0.0100276185	 0.0834299914	 0.1638269296	 0.094747
O	 0.4603189216	-0.3574558125	 1.4293104224	-0.414516
C	-1.3530672899	-0.5786914414	-0.1243822673	-0.031179
C	-1.6479678129	-2.0561598337	 0.0403796792	-0.018015
C	-0.648285608	-3.0745723211	 0.5396028152	-0.420156
N	-2.2325906659	-1.0622623443	 0.9148684689	-0.068719
C	-2.1549126747	-0.9710381349	 2.2877330617	 0.164419
O	-2.2840404788	-1.9045930907	 3.0438461402	-0.316464
H	 0.8468538315	 2.0753079251	 0.3084605845	 0.110995
H	-0.4708876399	 1.9513255199	-0.8616030146	 0.12539
H	-0.8312771659	 1.9653005975	 0.8788950215	 0.135659
H	 0.6847891351	-0.2379065833	-0.6308745932	 0.084397
H	 1.2651931232	 0.126298252	 1.6387616238	 0.290339
H	-1.8713118951	-0.0772261919	-0.9429108568	 0.094877
H	-2.3666036198	-2.4617295368	-0.6732099303	 0.09604
H	 0.1065648072	-2.6204949685	 1.179466341	 0.154193
H	-1.1647857027	-3.8503051773	 1.1113116809	 0.143792
H	-0.1537207907	-3.5496204472	-0.3146113345	 0.10982
H	-2.0578817869	 0.0765981733	 2.6270520259	 0.074011
59.9611	108.5324	137.6689	176.005	199.6109	241.3175	244.9837	274.9162	295.2796	320.2722	398.4971	437.2977	542.4954	567.5281	708.7809	774.8936	813.4556	854.435	928.6051	1012.1567	1023.2757	1028.3081	1073.2984	1079.2222	1113.9519	1142.756	1170.746	1178.4387	1196.2218	1239.7957	1350.3011	1382.6454	1396.2695	1407.255	1411.6458	1419.9162	1428.8451	1465.4814	1492.8316	1493.6456	1501.8467	1503.0767	1791.249	2955.5434	2959.8705	3031.0403	3046.0934	3087.4854	3096.2901	3101.22	3111.4804	3119.5999	3170.8227	3826.9281
CC(O)C1C(C)N1C=O	C[C@@H](O)[C@H]1[C@@H](C)N1C=O	
InChI=1S/C6H11NO2/c1-4-6(5(2)9)7(4)3-8/h3-6,9H,1-2H3	InChI=1S/C6H11NO2/c1-4-6(5(2)9)7(4)3-8/h3-6,9H,1-2H3/t4-,5-,6-,7?/m1/s1
