19
gdb 108515	2.71309	1.52481	1.23186	2.2111	70.59	-0.2489	0.0634	0.3123	1075.3056	0.159342	-460.129655	-460.121397	-460.120453	-460.162574	30.896	
C	-0.1884936965	 1.4282794787	-0.1183391543	-0.264494
O	-0.0250166604	 0.024981793	-0.0282450117	-0.293698
C	 0.7156925226	-0.5312720087	-1.0750828867	 0.334738
C	 0.0289443553	-0.6493788354	-2.4598648276	-0.120877
O	 0.142873841	-2.0868619796	-2.4368864672	-0.290053
C	 0.7385268859	-2.0796817113	-1.1232602719	 0.057874
C	 2.2170733068	-2.43782272	-1.144304483	-0.109831
O	 2.8750014689	-1.2790266647	-1.6538710337	-0.252951
C	 2.2090853502	-0.1534843677	-1.1022819318	-0.143075
H	 0.7683157699	 1.963351174	-0.0377192131	 0.115625
H	-0.6750114712	 1.7227381455	-1.0596257915	 0.113275
H	-0.827650838	 1.7278165301	 0.714810812	 0.135262
H	-1.017771299	-0.3211626654	-2.4648988683	 0.101744
H	 0.5630860793	-0.210913135	-3.3107055562	 0.104983
H	 0.1391072479	-2.6186160024	-0.3842607964	 0.088862
H	 2.5629258742	-2.6715954548	-0.1237627491	 0.092709
H	 2.4445400515	-3.2769782451	-1.8054588303	 0.123705
H	 2.4520369974	 0.710766658	-1.7260444792	 0.110031
H	 2.5350292343	 0.0450114107	-0.0673454301	 0.096169
107.8922	118.2866	183.7409	197.7944	228.8558	320.4871	368.0232	391.6643	456.969	601.4035	635.1429	741.6839	858.6785	865.2459	910.2328	943.8014	965.0386	1006.6459	1020.2007	1052.223	1075.8295	1111.3026	1153.3888	1156.6683	1181.3126	1194.6892	1202.8491	1225.0159	1238.6166	1271.7567	1284.3502	1316.3258	1350.8074	1364.7813	1404.275	1482.2554	1485.5438	1490.2222	1503.5962	1505.8797	1509.0218	2966.5389	2975.7644	2989.2441	3015.4854	3040.6942	3067.9161	3078.2813	3092.3692	3110.4633	3123.7523
COC12COC1COC2	CO[C@]12CO[C@H]1COC2	
InChI=1S/C6H10O3/c1-7-6-3-8-2-5(6)9-4-6/h5H,2-4H2,1H3	InChI=1S/C6H10O3/c1-7-6-3-8-2-5(6)9-4-6/h5H,2-4H2,1H3/t5-,6+/m0/s1
