18
gdb 104548	2.5006	1.21011	0.97546	2.6395	76.84	-0.263	-0.0403	0.2227	1251.1239	0.145643	-401.978493	-401.969325	-401.968381	-402.012864	33.644	
C	 0.1606771295	 1.4180649722	 0.2484940822	-0.4001
C	 0.0782325758	-0.0704903612	-0.0924156702	-0.23654
C	 0.667336511	-0.4413030904	-1.4685426205	 0.144188
C	 2.2403804054	-0.3643418972	-1.5252273364	-0.384354
C	 2.2665271638	-1.9000408282	-1.5026992708	 0.411919
O	 3.1323062354	-2.7078251226	-1.3513837274	-0.275498
C	 0.7457601991	-1.9971312296	-1.6959682503	-0.391688
C	-0.0051771153	 0.2792422282	-2.5433030729	 0.253428
N	-0.5401769623	 0.8486995551	-3.3959728362	-0.349667
H	 1.1962655904	 1.7736711714	 0.2576508091	 0.122707
H	-0.3939392821	 2.0203788372	-0.4770086708	 0.148455
H	-0.2630086012	 1.6064671421	 1.2388060994	 0.126499
H	 0.6131125957	-0.6615188388	 0.6616762785	 0.10951
H	-0.9658016804	-0.4029219143	-0.065018626	 0.12179
H	 2.6308930105	 0.0396309971	-2.463409379	 0.156425
H	 2.7319718993	 0.1428384732	-0.6916525276	 0.14386
H	 0.199004022	-2.615495834	-0.9797329852	 0.143088
H	 0.4805740132	-2.3092147702	-2.7100743559	 0.155976
46.2172	112.3813	158.385	177.0878	214.9862	258.3619	340.0148	391.221	409.0485	455.0151	518.5769	582.2438	619.3077	684.7666	722.7343	791.88	841.1497	904.1226	935.9235	1004.207	1024.1724	1030.8414	1086.7266	1112.2401	1137.0396	1175.7767	1208.9485	1238.6041	1264.9734	1331.3086	1365.0437	1419.7625	1423.9357	1440.5051	1484.6561	1499.3674	1506.0574	1906.342	2350.0463	3028.0444	3041.1854	3065.5877	3068.1499	3070.4052	3109.8802	3120.3987	3125.2614	3126.8965
CCC1(CC(=O)C1)C#N	CCC1(CC(=O)C1)C#N	
InChI=1S/C7H9NO/c1-2-7(5-8)3-6(9)4-7/h2-4H2,1H3	InChI=1S/C7H9NO/c1-2-7(5-8)3-6(9)4-7/h2-4H2,1H3
