21
gdb 92911	2.79791	1.22043	0.96424	1.7673	86.47	-0.241	0.0156	0.2566	1290.1506	0.183405	-387.095348	-387.086374	-387.08543	-387.129143	34.739	
C	-0.8340405997	 1.307826587	 0.0346593227	-0.38058
C	 0.0053174619	 0.0041532075	-0.0184688792	-0.081237
C	 0.6609200772	-0.1264986777	-1.3707668483	-0.050824
C	 1.9089491904	 0.1632068794	-1.7331422447	-0.080762
C	 3.0203379798	 0.6606077226	-0.845768326	-0.277297
C	 3.2955267525	-0.2169352069	 0.3865201451	 0.079926
O	 4.5021576263	 0.1974676648	 1.028974479	-0.429812
C	 2.1704593449	-0.2497617536	 1.3910647469	-0.106613
C	 0.854195219	-0.1264261009	 1.2205450472	-0.052322
H	-0.1849298408	 2.1859548545	-0.0298398778	 0.123643
H	-1.5426378782	 1.3463171142	-0.7983784721	 0.115554
H	-1.402839474	 1.3690588612	 0.9682666575	 0.113417
H	-0.7246318941	-0.8182185545	 0.0514349318	 0.0922
H	-0.0230244928	-0.4552064556	-2.1520860839	 0.085076
H	 2.1680896579	 0.0285552992	-2.7808960886	 0.087616
H	 3.9527007782	 0.7206335252	-1.4144270597	 0.108164
H	 2.8034086197	 1.6800349169	-0.4956609425	 0.099887
H	 3.5130765066	-1.236905189	 0.0446160243	 0.103502
H	 4.3397573996	 1.068358468	 1.408997247	 0.274679
H	 2.534296769	-0.3966834019	 2.4069673225	 0.089436
H	 0.2485153364	-0.1591671106	 2.1266510487	 0.086348
44.3423	129.687	212.4613	246.7344	277.4913	302.1072	330.382	358.0612	378.6395	439.9019	528.6137	605.9518	640.6917	720.4096	749.1632	782.6316	833.4933	876.7564	924.0654	988.4047	1003.0051	1010.4208	1018.9817	1026.8612	1064.6789	1078.3411	1106.03	1158.0639	1195.0318	1241.4874	1269.4696	1280.9857	1301.0213	1336.9862	1361.0717	1393.7607	1396.6027	1408.0888	1419.5745	1442.8043	1485.2136	1494.3928	1497.5156	1730.858	1741.027	2971.7921	3003.9289	3030.4443	3033.2859	3083.746	3103.9156	3112.379	3114.66	3126.4197	3143.0865	3155.0151	3794.6547
CC1C=CCC(O)C=C1	C[C@H]1C=CC[C@@H](O)C=C1	
InChI=1S/C8H12O/c1-7-3-2-4-8(9)6-5-7/h2-3,5-9H,4H2,1H3	InChI=1S/C8H12O/c1-7-3-2-4-8(9)6-5-7/h2-3,5-9H,4H2,1H3/t7-,8+/m0/s1
