14
gdb 43473	2.6364	1.92134	1.32665	2.7921	63.15	-0.2724	-0.032	0.2404	922.1419	0.10253	-473.839277	-473.832614	-473.83167	-473.870505	25.695	
N	-0.0813106228	 1.2798874328	-0.2376884988	-0.508125
C	-0.0830772011	 0.0553605428	 0.0421130896	 0.449572
O	 1.0707047109	-0.6185829813	 0.4397257989	-0.24972
C	 1.0017728848	-1.9778289539	 0.7015664643	 0.448419
O	 1.9879367606	-2.5799138981	 0.9925521749	-0.301881
C	-0.406350181	-2.5362541812	 0.555261506	-0.054524
C	-0.9808794521	-2.1142996448	-0.8159651211	-0.268029
C	-1.2995731892	-0.8283817598	-0.0168155237	 0.002836
O	-1.3106113669	-1.6115940041	 1.2143652324	-0.278288
H	 0.8545389454	 1.679028563	-0.1374357358	 0.24082
H	-0.4674854101	-3.5610398247	 0.918899491	 0.122005
H	-0.3162252784	-2.0535381032	-1.6792379903	 0.135231
H	-1.8866351236	-2.6713854836	-1.0545352808	 0.137744
H	-2.2084752467	-0.2557825238	-0.1908649066	 0.123938
133.974	140.3148	303.077	359.3473	413.3298	469.2293	539.0062	580.6309	695.8417	722.3147	778.9276	870.897	883.3158	920.8424	937.3836	954.4598	958.0686	1008.1857	1040.2023	1091.4242	1117.5323	1190.9246	1203.928	1253.2511	1294.2702	1305.58	1322.5516	1342.3633	1487.6193	1786.8743	1896.6984	3087.3522	3138.5264	3149.1678	3157.5556	3470.4251
N=C1OC(=O)C2CC1O2	[NH][C]1OC(=O)[C@@H]2C[C@H]1O2	
InChI=1S/C5H5NO3/c6-4-2-1-3(8-2)5(7)9-4/h2-3,6H,1H2	InChI=1S/C5H5NO3/c6-4-2-1-3(8-2)5(7)9-4/h2-3,6H,1H2/t2-,3+/m1/s1
