18
gdb 32999	5.04257	0.9197	0.78609	2.6039	85.16	-0.2108	-0.0317	0.1791	1448.2776	0.14977	-398.183832	-398.175374	-398.17443	-398.217769	30.884	
C	 0.0043739175	 1.5688799212	-0.0662078152	-0.408079
C	-0.0659039763	 0.045539296	-0.0246454659	-0.108401
N	 0.7137029773	-0.5268246282	-1.1045635258	-0.361862
C	 0.8240297104	-1.8636600201	-1.3590132736	 0.404029
N	 1.4079604059	-2.2042214152	-2.5186292169	-0.329377
C	 1.5450837838	-3.5069198902	-2.7578482168	-0.012272
C	 1.109734423	-4.4834570642	-1.8697049333	-0.042077
N	 0.5167393189	-4.1505977228	-0.7171315305	-0.227035
C	 0.371188183	-2.8587573274	-0.4607737633	-0.087336
H	 1.0388647354	 1.9143905058	 0.0226797453	 0.132762
H	-0.4075780083	 1.9553741703	-1.0048358105	 0.126134
H	-0.5732307491	 1.999585712	 0.7554194878	 0.129825
H	 0.3251462729	-0.3123739756	 0.9370398581	 0.117461
H	-1.1165016486	-0.2813470599	-0.0779744537	 0.107591
H	 0.9466352428	 0.0631548841	-1.8888335479	 0.24387
H	 2.0195999349	-3.7803348373	-3.6977574997	 0.107947
H	 1.231338869	-5.5405483315	-2.0837917001	 0.104685
H	-0.1129239426	-2.592132457	 0.473877112	 0.102136
51.8645	74.3909	149.1953	203.104	259.9505	330.6515	395.2166	441.264	468.478	554.5808	612.1129	670.4625	785.0345	820.2476	854.8566	857.6799	922.8308	954.7188	978.5004	1013.2209	1072.0187	1086.4427	1170.4549	1176.1985	1208.0865	1254.2842	1296.5588	1309.1319	1354.1359	1395.0462	1416.0881	1462.3148	1465.8188	1493.1821	1502.2239	1533.0388	1548.413	1585.6301	1621.8063	2976.4555	3022.7663	3039.7049	3107.7174	3125.5061	3149.6379	3168.5179	3181.7966	3620.0257
CCNC1=NC=CN=C1	CCNc1nccnc1	
InChI=1S/C6H9N3/c1-2-8-6-5-7-3-4-9-6/h3-5H,2H2,1H3,(H,8,9)	InChI=1S/C6H9N3/c1-2-8-6-5-7-3-4-9-6/h3-5H,2H2,1H3,(H,8,9)
