22
gdb 11568	3.47913	1.22321	0.9694	0.9785	79.28	-0.2349	0.0882	0.323	1285.0669	0.198185	-350.191436	-350.181821	-350.180877	-350.226144	35.275	
C	 0.1354979807	 1.5052831442	-0.2434055774	-0.384669
C	-0.000372255	 0.0098899331	 0.0511063432	-0.174566
C	-1.4501700431	-0.4772236739	 0.0817954506	 0.15322
C	-1.5486248981	-1.9926787259	 0.2691931654	-0.401961
O	-2.0957194309	 0.2379247003	 1.1375698284	-0.261621
C	-3.4870119503	 0.245496564	 1.090491265	 0.155016
C	-4.2845436174	-0.7248426128	 1.9288198089	-0.283919
C	-4.1866119373	 0.7385414075	 2.3149745756	-0.297889
H	 1.1848940669	 1.8152218055	-0.2334457224	 0.10729
H	-0.2751388276	 1.7528837949	-1.2290831913	 0.106878
H	-0.404520896	 2.0936657528	 0.5021450071	 0.133485
H	 0.5416661294	-0.5749183196	-0.7017205645	 0.091386
H	 0.4573262999	-0.224337853	 1.0205445569	 0.101658
H	-1.9357908133	-0.2038568879	-0.8713069859	 0.060486
H	-1.0421821746	-2.5111747245	-0.5514657863	 0.110822
H	-1.0751287664	-2.2914919921	 1.2102378424	 0.117687
H	-2.5895320506	-2.3243244313	 0.2874917775	 0.122915
H	-3.8967590853	 0.5275789308	 0.1193045187	 0.080241
H	-5.2239804546	-1.1043300752	 1.5407580666	 0.10862
H	-3.7218355307	-1.4275650772	 2.5321636997	 0.118513
H	-3.5548751586	 0.9829445846	 3.1614216097	 0.124132
H	-5.0560793471	 1.3752259758	 2.1969873422	 0.112275
51.3671	87.3818	117.0634	168.5284	220.5734	231.3847	250.0324	331.3212	395.9373	440.1561	466.3755	511.435	744.581	773.7058	807.076	831.0485	837.6288	913.4788	964.4967	974.924	992.2789	1024.3234	1043.2053	1061.7184	1070.079	1123.9951	1132.1793	1161.1305	1183.1248	1195.37	1217.7548	1242.1255	1301.9592	1330.0232	1363.4812	1396.1551	1401.0478	1404.2381	1421.4471	1453.3393	1475.1704	1489.9834	1495.6289	1496.84	1503.7922	1510.6653	2949.7351	3026.9622	3034.8609	3039.0101	3064.5183	3085.8764	3098.5014	3107.3647	3123.4434	3126.8411	3133.3429	3140.2509	3219.3914	3233.723
CCC(C)OC1CC1	CC[C@@H](C)OC1CC1	
InChI=1S/C7H14O/c1-3-6(2)8-7-4-5-7/h6-7H,3-5H2,1-2H3	InChI=1S/C7H14O/c1-3-6(2)8-7-4-5-7/h6-7H,3-5H2,1-2H3/t6-/m1/s1
