22
gdb 109581	2.12864	1.39596	0.98633	1.93	78.91	-0.2271	0.0624	0.2896	1285.078	0.192751	-441.454569	-441.444205	-441.443261	-441.490681	37.967	
C	 0.166564136	 1.5828471725	 0.1984308464	-0.403326
C	 0.0954457946	 0.0826156135	-0.0228808441	 0.035141
C	 0.7268007385	-0.5549234774	-1.2952256718	 0.0844
O	 1.7047328003	 0.2121869771	-1.9568429748	-0.424093
C	 1.2430618677	-1.6734517271	-0.3351633288	 0.004752
C	 2.6900108722	-2.1586567044	-0.4408269545	-0.08953
O	 3.2167072955	-2.5005272158	 0.8322544924	-0.418189
N	 0.9967778617	-0.7566806911	 0.8066431379	-0.125781
C	 0.4404707615	-1.324949072	 2.0226942444	-0.336938
H	 1.1840853625	 1.9628296634	 0.0704201528	 0.106488
H	-0.4851621474	 2.1083796735	-0.5066659568	 0.124705
H	-0.158125575	 1.8375464419	 1.2127139013	 0.120089
H	-0.9510925408	-0.256109689	 0.0709154154	 0.060056
H	 0.0281198805	-0.8739421606	-2.0691634505	 0.092103
H	 2.3120503086	 0.5629220782	-1.2965260076	 0.286106
H	 0.5479713935	-2.5285369087	-0.3249797695	 0.060673
H	 2.7487994735	-3.059360864	-1.0593966289	 0.111126
H	 3.308090505	-1.3908259555	-0.9282315053	 0.080574
H	 3.149462792	-1.6965020168	 1.3609802661	 0.285895
H	 1.13694591	-2.0557118893	 2.4411650205	 0.131396
H	 0.275407989	-0.5374517123	 2.7657222947	 0.118307
H	-0.5237008595	-1.8370803661	 1.8448645906	 0.096047
25.9511	61.0589	168.8342	185.061	218.9002	227.4384	247.7342	284.8793	320.64	360.2244	390.8492	465.2676	481.9912	532.7772	608.6009	739.4172	782.416	821.319	870.0984	923.2312	1000.3431	1024.7247	1066.6073	1074.6783	1100.4292	1136.9077	1153.981	1162.0383	1186.7828	1210.824	1215.9491	1248.9099	1267.6907	1283.6036	1328.8354	1348.193	1377.8941	1397.4057	1412.9178	1430.525	1440.2694	1452.3598	1483.4284	1492.2367	1496.0611	1505.6779	1510.6139	2935.4376	2945.7894	2968.0567	2998.6699	3038.2776	3064.362	3083.1159	3105.1693	3110.6794	3114.2206	3119.0237	3788.0009	3810.376
CC1C(O)C(CO)N1C	C[C@H]1[C@@H](O)[C@@H](CO)N1C	
InChI=1S/C6H13NO2/c1-4-6(9)5(3-8)7(4)2/h4-6,8-9H,3H2,1-2H3	InChI=1S/C6H13NO2/c1-4-6(9)5(3-8)7(4)2/h4-6,8-9H,3H2,1-2H3/t4-,5+,6+/m0/s1
