14
gdb 29099	3.10994	1.47355	1.00183	6.5641	70.74	-0.1984	-0.0363	0.1621	1093.0154	0.101986	-470.040158	-470.032188	-470.031243	-470.072867	29.876	
N	 0.1097639375	 1.4339410419	 0.1657779599	-0.569216
C	-0.049372746	 0.053183399	 0.1283286183	 0.371072
C	-1.15677863	-0.6418852534	-0.15266414	-0.163008
N	-1.1512123547	-2.0369821992	 0.004147822	-0.359838
C	-0.0602270683	-2.7787970405	 0.362768678	 0.372041
O	-0.0809808884	-3.9838125799	 0.4838278728	-0.343164
C	 1.1946231227	-1.9556825177	 0.6002778649	 0.27553
N	 2.2857653375	-2.5171200631	 0.8860260642	-0.463396
O	 1.1044853458	-0.5762051267	 0.5108705472	-0.255064
H	 0.9847957111	 1.735096826	-0.2479103682	 0.25838
H	-0.6693568337	 1.9328925012	-0.2413472048	 0.256316
H	-2.0754914971	-0.1833033658	-0.4830364114	 0.124369
H	-1.993484974	-2.56544773	-0.1650965668	 0.264905
H	 3.0225440076	-1.8216308919	 1.019048964	 0.231074
74.3773	115.0164	211.9356	311.9738	331.5788	364.1228	398.3941	479.3115	494.8228	587.1149	594.6631	604.3937	690.7034	697.4988	740.1024	791.9956	818.9895	908.3791	961.3251	1038.5475	1126.7697	1156.4161	1229.9539	1316.8445	1364.5465	1410.3312	1462.8926	1633.518	1738.6888	1771.057	1811.0154	3251.0079	3476.0965	3529.7188	3633.4393	3639.227
NC1=CNC(=O)C(=N)O1	NC1=CNC(=O)[C]([NH])O1	
InChI=1S/C4H5N3O2/c5-2-1-7-4(8)3(6)9-2/h1,6H,5H2,(H,7,8)	InChI=1S/C4H5N3O2/c5-2-1-7-4(8)3(6)9-2/h1,6H,5H2,(H,7,8)
