17
gdb 108297	2.82776	1.34989	1.05807	3.1329	68.7	-0.2262	0.0153	0.2415	1130.6875	0.136451	-455.118964	-455.1106	-455.109655	-455.152275	31.297	
O	 0.0147118007	 1.5110887159	-0.1452626714	-0.415533
C	 0.0574695575	 0.0989294655	 0.0129545612	-0.157246
C	-1.327037822	-0.5057698486	 0.0508228182	 0.354719
C	-2.2067583063	-0.3601601924	 1.3236539688	-0.214745
N	-2.6242406841	-1.7854418471	 1.2173723434	-0.31459
C	-1.6650072167	-2.0323237767	 0.1061457953	-0.262187
C	-2.4068868349	-1.8110960086	-1.2389947762	 0.471936
O	-3.074659829	-2.4614598208	-1.9905822615	-0.352452
N	-2.0564118106	-0.4623966783	-1.2273333669	-0.397254
H	-0.2369732784	 1.6924116919	-1.0566964851	 0.287022
H	 0.6429414701	-0.3794803528	-0.7856887492	 0.098983
H	 0.570574347	-0.0845606335	 0.9626342438	 0.113234
H	-1.6036499355	-0.133492202	 2.2106473962	 0.10719
H	-3.0357688923	 0.3524008805	 1.2694987147	 0.109803
H	-2.4283072399	-2.3325570249	 2.0456921786	 0.231187
H	-0.9438082624	-2.8430856816	 0.2102227451	 0.094932
H	-2.5733504333	 0.3051707337	-1.6366180249	 0.245001
61.9264	127.014	158.7034	231.0099	292.9611	347.968	362.6969	400.9934	455.7897	505.2402	644.8429	678.2022	727.3882	792.9435	824.6525	911.7715	914.2997	969.3111	991.573	1024.9042	1037.1268	1060.7717	1096.915	1133.7294	1141.9716	1175.1907	1237.2513	1266.7759	1288.4078	1333.3787	1356.6703	1374.9326	1394.2734	1413.8537	1489.4922	1506.0135	1902.3857	3000.8584	3027.5371	3076.5892	3082.4158	3117.8485	3563.1706	3577.7294	3815.495
OCC12CNC1C(=O)N2	OC[C@]12CN[C@H]1C(=O)N2	
InChI=1S/C5H8N2O2/c8-2-5-1-6-3(5)4(9)7-5/h3,6,8H,1-2H2,(H,7,9)	InChI=1S/C5H8N2O2/c8-2-5-1-6-3(5)4(9)7-5/h3,6,8H,1-2H2,(H,7,9)/t3-,5+/m0/s1
