17
gdb 78017	2.80826	1.33611	1.10015	3.3852	71.11	-0.2454	-0.0336	0.2117	1132.5219	0.133848	-458.924602	-458.91607	-458.915126	-458.957692	31.908	
C	-0.0962396815	 1.5688089488	 0.010423003	-0.427078
C	 0.1664135193	 0.0780277286	 0.0464369406	 0.132587
O	 1.319374749	-0.3583161627	-0.7548715376	-0.338723
C	 1.771920459	-1.1898975154	 0.3089813564	 0.303241
C	 2.2023171001	-2.574741899	 0.0801614078	 0.056561
O	 2.2762660708	-3.1120966816	-0.9963136887	-0.261566
C	 2.204163686	-0.300709449	 1.4489342047	 0.081233
O	 2.8132612897	 0.9172218196	 1.1844682642	-0.425927
C	 0.7365839047	-0.5914633494	 1.2982593438	-0.24435
H	 0.7303681574	 2.1352108605	 0.4416347464	 0.141241
H	-0.2619832156	 1.8947948109	-1.021268103	 0.135821
H	-1.0027111916	 1.7919278109	 0.5830590311	 0.12827
H	-0.7088198262	-0.4756213813	-0.3135934383	 0.104682
H	 2.4728363125	-3.0986390856	 1.0262793283	 0.073473
H	 2.6653275541	-0.8141137888	 2.288784792	 0.12325
H	 2.7439023209	 1.0532367008	 0.2287164867	 0.30168
H	 0.1587439114	-1.1030485672	 2.0573934725	 0.115606
90.7066	154.6602	186.6379	213.3448	235.3085	282.4805	318.4704	407.749	452.9858	474.5405	592.5314	653.9283	723.3933	764.7883	790.8519	859.5363	899.9693	944.9787	974.7551	1024.5535	1044.3677	1078.0746	1084.4969	1110.9443	1154.982	1193.3558	1254.8771	1315.2442	1318.6824	1361.008	1390.7861	1410.7816	1423.9372	1464.4489	1487.774	1502.5697	1811.7952	2863.267	3035.4775	3045.6561	3109.2582	3148.4113	3154.9732	3198.62	3742.3347
CC1OC2(C=O)C(O)C12	C[C@H]1O[C@@]2(C=O)[C@@H](O)[C@@H]12	
InChI=1S/C6H8O3/c1-3-4-5(8)6(4,2-7)9-3/h2-5,8H,1H3	InChI=1S/C6H8O3/c1-3-4-5(8)6(4,2-7)9-3/h2-5,8H,1H3/t3-,4-,5+,6-/m1/s1
