23
gdb 119649	3.60621	1.01347	0.91861	0.22	90.55	-0.277	0.0929	0.3699	1407.608	0.206059	-351.09058	-351.081896	-351.080952	-351.124373	33.903	
C	-0.0396252994	 1.5629283475	 0.0338924609	-0.379529
C	-0.0308184577	 0.032289772	 0.0120385273	-0.161009
C	 0.7748876454	-0.5792962997	 1.1671296143	-0.334501
C	 0.8017505171	-2.086214679	 1.1525872166	 0.393354
C	 1.3613715362	-3.033522665	 0.0639872122	-0.310432
C	 0.8369223567	-3.9808011362	 1.156629312	-0.042365
C	 1.296403428	-3.0313210088	 2.3137312528	-0.088591
C	-0.0894854151	-3.060418255	 2.9872137664	-0.268436
C	-0.3938519832	-3.0672767395	 1.4764824675	-0.071342
H	 0.9769671112	 1.9654097384	-0.0391216587	 0.113137
H	-0.6201495106	 1.9719618036	-0.799021995	 0.109859
H	-0.4776238227	 1.9432950263	 0.9636267314	 0.112922
H	-1.061178414	-0.3432668324	 0.0539410457	 0.097214
H	 0.3817600094	-0.3189236699	-0.9422089344	 0.09931
H	 1.8069784606	-0.2024948053	 1.1293216392	 0.093502
H	 0.3602428552	-0.2327398703	 2.124161176	 0.094677
H	 0.8369243862	-3.0508790904	-0.8977236636	 0.087176
H	 2.445848244	-3.0126550389	-0.0932296166	 0.08498
H	 0.8437500946	-5.0715618939	 1.1862843926	 0.06576
H	 2.2881456892	-3.0123783412	 2.7709074144	 0.063027
H	-0.3452152913	-3.9685545772	 3.5431212771	 0.088022
H	-0.3886090401	-2.17235374	 3.5534473995	 0.089397
H	-1.3588176799	-3.0938038751	 0.9659759422	 0.063866
71.4963	74.3644	129.9928	240.3453	268.3344	314.6446	334.7835	419.0336	460.3776	671.0032	720.2444	745.1625	768.6207	837.034	863.626	870.7842	888.1073	901.2523	912.4232	928.9208	971.0817	994.3576	1026.5717	1032.2212	1044.7029	1059.0923	1078.6944	1122.3284	1133.7284	1154.5951	1160.3315	1171.5773	1189.1474	1217.7139	1238.5388	1243.1564	1272.2862	1297.2542	1305.2996	1331.1048	1347.2081	1393.5137	1409.675	1474.0944	1491.3823	1498.4942	1508.1917	1509.936	1511.113	2999.692	3021.4961	3026.4257	3027.9028	3028.619	3035.9375	3057.2541	3081.6611	3085.9764	3087.6846	3089.785	3094.9669	3100.2407	3104.0585
CCCC12CC3C1CC23	CCC[C@@]12C[C@H]3[C@@H]1C[C@@H]23	
InChI=1S/C9H14/c1-2-3-9-5-6-7(9)4-8(6)9/h6-8H,2-5H2,1H3	InChI=1S/C9H14/c1-2-3-9-5-6-7(9)4-8(6)9/h6-8H,2-5H2,1H3/t6-,7-,8+,9+
