21
gdb 73391	2.62274	2.01956	1.49954	0.2711	85.9	-0.2151	0.016	0.2311	969.3904	0.185112	-349.945143	-349.937991	-349.937047	-349.975971	30.776	
C	 0.0216633716	 1.5496004983	-0.0494665941	-0.498483
C	 0.0333865872	 0.0401328116	 0.0098634411	 0.368771
C	 0.45472791	-0.6963843373	-1.2666854351	-0.267096
C	 0.3352829316	-2.174703698	-0.797521761	-0.245979
C	-0.1257462599	-1.9362553984	 0.6355997059	 0.005244
C	 0.7469421249	-0.749538174	 1.1915324992	-0.109619
C	-0.0278039103	-0.3171126688	 2.4283626835	-0.104532
C	-1.3012120365	-0.3432013194	 2.0230718395	-0.104524
C	-1.202176677	-0.7890831767	 0.5710538465	-0.109625
H	 1.0177407564	 1.9382108717	-0.2918870932	 0.110607
H	-0.6646271164	 1.904094602	-0.827473823	 0.110607
H	-0.2908416485	 1.9832634556	 0.9045385308	 0.118464
H	-0.2080082379	-0.4618417912	-2.1066901089	 0.093531
H	 1.4718702471	-0.4278307595	-1.5718742939	 0.093536
H	-0.3942796982	-2.746837863	-1.3793906066	 0.095371
H	 1.2873603428	-2.7128035521	-0.8440540287	 0.095366
H	-0.3120155431	-2.8007131176	 1.2757828008	 0.057249
H	 1.835782999	-0.8229643	 1.2400948115	 0.049189
H	 0.3907373218	-0.0539391291	 3.3893821546	 0.096367
H	-2.207506606	-0.1071258677	 2.5624174143	 0.096368
H	-2.1152595688	-0.9031084865	-0.0176752231	 0.049188
219.2017	234.4472	277.2378	292.0576	350.744	395.6698	535.7302	597.5454	615.9554	657.508	726.9959	740.0005	784.1011	821.1725	903.9303	906.3031	912.6228	919.019	935.0271	941.6938	955.028	995.934	1007.5784	1013.0009	1079.2309	1096.0104	1124.832	1144.6656	1176.7555	1193.1635	1218.9445	1225.0029	1247.5876	1253.1115	1257.2373	1292.3221	1324.7341	1331.1144	1341.6186	1406.3324	1483.9856	1491.5052	1495.8956	1507.558	1626.2255	3024.1936	3035.8362	3047.9084	3068.5424	3081.758	3086.5883	3088.6473	3090.8212	3102.1397	3108.399	3218.1284	3245.3267
CC12CCC3C1C=CC23	C[C@@]12CC[C@H]3[C@@H]1C=C[C@@H]23	
InChI=1S/C9H12/c1-9-5-4-6-7(9)2-3-8(6)9/h2-3,6-8H,4-5H2,1H3	InChI=1S/C9H12/c1-9-5-4-6-7(9)2-3-8(6)9/h2-3,6-8H,4-5H2,1H3/t6-,7-,8+,9+
