17
gdb 45782	3.02747	1.40979	1.06966	1.6222	76.16	-0.2167	-0.0109	0.2058	1108.4792	0.138352	-418.030117	-418.022567	-418.021623	-418.062243	29.699	
O	 0.0151255663	-0.0794203442	 0.0391175828	-0.360597
C	-0.0092707527	 1.1321809325	-0.007401682	 0.405856
C	-1.2967914686	 1.9532533225	-0.0519271011	-0.422421
C	-1.1627824156	 3.2800263707	-0.7841560627	 0.297935
C	-1.8035020059	 3.4384782325	-2.1276358794	-0.273149
N	-2.3607454975	 4.1219383468	-0.9502721356	-0.362016
C	 0.1037354029	 3.9866718275	-0.4709455912	-0.175535
C	 1.1746042271	 3.2848512212	-0.0932889259	 0.007238
N	 1.1394352087	 1.8917304773	 0.0473034615	-0.343138
H	-2.0805622217	 1.3202018302	-0.4734784984	 0.12842
H	-1.5630119135	 2.1511030701	 0.9973575771	 0.137271
H	-1.3542889009	 4.0945895233	-2.8676729605	 0.120954
H	-2.3296962581	 2.5802018537	-2.539059251	 0.116684
H	-3.1833708989	 3.6245968844	-0.6158187401	 0.23235
H	 0.1444545641	 5.0626782988	-0.5761632227	 0.110795
H	 2.1343182805	 3.7376748901	 0.1230337767	 0.122998
H	 1.9971293238	 1.3727284228	 0.1584922126	 0.256356
90.9683	124.9071	291.6939	297.7797	353.5514	431.5065	458.5467	500.7415	550.8831	577.7641	641.357	700.4039	743.7951	819.5394	839.662	908.9475	927.864	943.6767	964.6352	985.6959	995.359	1066.1076	1086.6422	1127.7477	1176.8819	1197.7938	1265.5098	1288.6362	1300.1928	1351.999	1366.2988	1438.6087	1456.2254	1465.6992	1507.9719	1715.107	1806.2788	3006.1268	3102.9625	3109.2187	3192.2746	3204.7725	3227.5446	3489.5831	3629.9577
O=C1CC2(CN2)C=CN1	O=C1C[C@]2(CN2)C=CN1	
InChI=1S/C6H8N2O/c9-5-3-6(4-8-6)1-2-7-5/h1-2,8H,3-4H2,(H,7,9)	InChI=1S/C6H8N2O/c9-5-3-6(4-8-6)1-2-7-5/h1-2,8H,3-4H2,(H,7,9)/t6-/m0/s1
