14
gdb 33626	3.52856	1.68442	1.47138	5.4503	69.16	-0.2537	-0.0104	0.2433	877.4216	0.103621	-395.636946	-395.630892	-395.629948	-395.667401	24.338	
N	-0.0140760769	-1.1501502054	-0.0649160416	-0.335885
C	-0.0187588573	 0.0061548987	-0.0407905684	 0.147638
C	-0.0241870025	 1.4353138668	-0.0104627024	 0.32421
C	-0.5107726295	 2.3574170568	 1.1586407822	-0.099621
N	 0.8960050647	 2.6097140442	 1.5286707168	-0.299404
C	 1.2151948973	 2.3863779277	 0.1046705429	-0.0996
C	 0.3410312424	 3.3175721171	-0.7863049902	-0.05643
C	-0.9270915747	 3.2961453266	-0.012075138	-0.056431
N	-0.7033173912	 2.2828013763	-1.0995542593	-0.196624
H	-1.2214589027	 2.0819642465	 1.9337251559	 0.109945
H	 1.0919741096	 3.5485890521	 1.8753749695	 0.221801
H	 2.235697409	 2.1400061225	-0.1774325044	 0.109947
H	 0.6309526279	 4.0676758321	-1.5100584666	 0.115225
H	-1.7216188759	 4.027890318	-0.0737648463	 0.115228
152.798	162.9408	435.3829	495.6849	507.9155	572.1663	584.3948	750.322	768.5916	818.4832	827.1935	842.1912	861.5133	917.7624	934.4455	959.1449	996.7394	1010.5386	1022.4657	1033.7121	1088.1747	1125.7429	1126.8564	1197.8733	1213.6228	1259.3453	1268.2704	1308.4012	1342.1844	1349.908	2352.7228	3158.0017	3159.0489	3203.0328	3214.0444	3462.5661
N#CC12C3NC1C1C3N21	N#C[C@@]12[C@H]3N[C@@H]1[C@@H]1[C@H]3N21	
InChI=1S/C6H5N3/c7-1-6-4-2-3(9(2)6)5(6)8-4/h2-5,8H	InChI=1S/C6H5N3/c7-1-6-4-2-3(9(2)6)5(6)8-4/h2-5,8H/t2-,3+,4+,5-,6-,9?
