21
gdb 57056	2.29392	1.16779	1.11756	3.1597	83.39	-0.2351	0.0325	0.2676	1280.1791	0.181839	-383.27156	-383.261752	-383.260808	-383.306394	35.785	
C	 0.0481146354	 1.5633121314	 0.0492887324	-0.393841
C	 0.0093281026	 0.0291088665	 0.0048232266	-0.100964
C	 0.4546343168	-0.4617987531	-1.3284958637	 0.258703
N	 0.8447613378	-0.8791478229	-2.3342530822	-0.338103
N	 0.7731404886	-0.5466754991	 1.0947795694	-0.075946
C	 2.2515820213	-0.4545687233	 1.1115120571	-0.179892
C	 2.2892765615	-1.854124156	 1.7684081613	-0.251801
C	 0.828585072	-2.0211219753	 1.2750644326	 0.070299
C	-0.2171914334	-2.6076460169	 2.2060735396	-0.402861
H	 1.0705869282	 1.9283787067	-0.0797680675	 0.138756
H	-0.5690574314	 1.9910789271	-0.7445197767	 0.135276
H	-0.3239819361	 1.8989430157	 1.0197115776	 0.134044
H	-1.030501231	-0.2993426398	 0.1265767753	 0.127469
H	 2.6986319456	-0.45829668	 0.1064370127	 0.112247
H	 2.6493168018	 0.3927399893	 1.6779204978	 0.10538
H	 3.0255602917	-2.5614063314	 1.3872726009	 0.112453
H	 2.3546881629	-1.8071452376	 2.857844446	 0.109575
H	 0.8146993845	-2.5464462378	 0.3064595432	 0.083243
H	-0.203763174	-2.093972777	 3.1720694816	 0.119933
H	-1.2242817553	-2.5147685869	 1.7842674991	 0.115827
H	-0.0274044794	-3.6735724695	 2.3721467967	 0.120206
60.7141	105.0824	137.9892	180.8237	208.7246	224.4519	230.0828	270.9524	333.4512	426.0842	444.5014	566.764	578.2123	675.4252	753.2552	797.6787	817.5693	900.9643	943.2417	961.2237	995.6207	1004.7219	1076.3411	1095.7832	1120.2471	1148.596	1169.313	1187.322	1221.5334	1228.1983	1262.9947	1288.8978	1321.0728	1342.3829	1360.7691	1389.5835	1405.3411	1409.059	1485.9769	1486.4563	1488.6174	1495.7347	1497.5402	1521.3523	2337.3612	2973.1005	2998.0707	3029.8045	3035.4475	3052.8528	3070.517	3081.7844	3095.4402	3111.9015	3129.2422	3139.6355	3142.2165
CC(C#N)N1CCC1C	C[C@@H](C#N)N1CC[C@H]1C	
InChI=1S/C7H12N2/c1-6-3-4-9(6)7(2)5-8/h6-7H,3-4H2,1-2H3	InChI=1S/C7H12N2/c1-6-3-4-9(6)7(2)5-8/h6-7H,3-4H2,1-2H3/t6-,7+/m1/s1
