13
gdb 34780	2.20213	1.91525	1.24245	7.3137	66.05	-0.2878	-0.0206	0.2672	967.6871	0.089345	-415.571467	-415.564042	-415.563098	-415.60379	26.908	
N	-0.2508443377	-1.1408908791	 0.0439260135	-0.318301
C	-0.109697777	 0.0061853489	 0.0464039999	 0.309974
C	 0.0165032702	 1.4392833971	 0.0453154447	-0.208997
C	 0.525500855	 2.2197707593	 1.2295947336	 0.089908
O	 1.5057060089	 1.4813108577	 1.9525017204	-0.267878
C	 2.4118042292	 1.5563773988	 0.8176839057	-0.028346
C	 3.0160486195	 0.2850378656	 0.4211980443	 0.303149
N	 3.5535998406	-0.6825351574	 0.0918050187	-0.302152
C	 1.3308815339	 2.2096191752	-0.045623377	-0.16014
H	-0.7778162456	 1.9498160348	-0.4933274093	 0.153051
H	-0.0354969766	 2.9813671133	 1.756121125	 0.14045
H	 3.2129871983	 2.2691170877	 1.0433150569	 0.151279
H	 1.5044454313	 2.9588929482	-0.8043140264	 0.138004
94.654	120.107	165.2915	223.5611	351.4494	385.0329	514.6486	534.2719	590.8604	642.2783	755.3291	800.6119	813.2565	906.7124	945.3888	989.2184	995.3879	1037.753	1039.8847	1057.6808	1103.9657	1168.6207	1239.0312	1272.1997	1326.0564	1360.3346	1417.1147	2363.7195	2365.7706	3052.9743	3154.8359	3204.2322	3225.791
N#CC1C2OC(C#N)C12	N#C[C@H]1[C@H]2O[C@@H](C#N)[C@@H]12	
InChI=1S/C6H4N2O/c7-1-3-5-4(2-8)9-6(3)5/h3-6H	InChI=1S/C6H4N2O/c7-1-3-5-4(2-8)9-6(3)5/h3-6H/t3-,4+,5-,6-/m1/s1
