22
gdb 85057	2.1977	1.54199	1.14721	3.2091	82.67	-0.25	0.0331	0.2831	1188.1357	0.194482	-404.38626	-404.376778	-404.375834	-404.420109	36.256	
C	 0.6028819112	 1.4017327147	-0.3887071377	-0.403686
C	 0.0066400469	 0.0922049562	 0.118921243	 0.102602
O	 0.035696399	-0.8899472952	-0.9403811068	-0.246716
C	 0.9930364297	-1.8370450037	-0.7202224421	 0.401212
N	 1.2744617822	-2.7691031044	-1.5256340117	-0.547666
C	 1.6724007034	-1.608251754	 0.6182493711	-0.093916
C	 3.1363562512	-1.1779385034	 0.4307101685	-0.406147
C	 0.7180080243	-0.6011854769	 1.30901849	-0.006508
C	 1.3315264508	 0.3319339476	 2.3512947781	-0.423174
H	 1.6613181785	 1.2989285036	-0.643193877	 0.128685
H	 0.0690641451	 1.7210663098	-1.2879770733	 0.130384
H	 0.5037672635	 2.1893426027	 0.3641207657	 0.121161
H	-1.0514134322	 0.2565418299	 0.3498082835	 0.08876
H	 0.698272548	-2.7024447471	-2.3665660331	 0.217028
H	 1.6773441927	-2.5571416241	 1.161529768	 0.104528
H	 3.2288689994	-0.2422062032	-0.1283982541	 0.120618
H	 3.6324018215	-1.0454028508	 1.3965368545	 0.115244
H	 3.6667779423	-1.9523859551	-0.1285178025	 0.145175
H	-0.0522099477	-1.1992231636	 1.8106540287	 0.087382
H	 2.1157505212	 0.9663634877	 1.9302348813	 0.126092
H	 0.5689171167	 0.9869863142	 2.7859434605	 0.117231
H	 1.7733455722	-0.2434751151	 3.1709459754	 0.12171
78.1546	115.2868	222.5569	238.9035	246.394	250.3103	258.6491	278.2661	341.1932	415.2987	478.9809	497.0529	640.4994	674.971	695.0192	742.7216	818.0807	852.4325	891.9141	935.2395	978.9999	1016.4629	1036.2121	1051.5556	1065.5556	1091.7257	1112.4665	1144.5322	1170.7566	1205.0562	1257.4794	1299.2762	1326.3037	1362.516	1372.4411	1378.5641	1394.6358	1405.2194	1413.9988	1418.191	1480.4258	1492.5186	1496.3987	1497.6341	1507.1486	1510.4248	1768.7422	3021.7909	3037.601	3043.5584	3046.79	3049.1714	3069.7078	3098.7226	3113.4274	3116.7085	3120.0169	3124.9185	3129.1664	3469.0624
CC1OC(=N)C(C)C1C	C[C@H]1O[C]([NH])[C@@H](C)[C@H]1C	
InChI=1S/C7H13NO/c1-4-5(2)7(8)9-6(4)3/h4-6,8H,1-3H3	InChI=1S/C7H13NO/c1-4-5(2)7(8)9-6(4)3/h4-6,8H,1-3H3/t4-,5+,6-/m1/s1
