21
gdb 118043	3.5077	0.77436	0.6717	1.9781	77.13	-0.2556	-0.0398	0.2158	1685.4147	0.178889	-461.35974	-461.348909	-461.347965	-461.396458	37.884	
C	-0.0051323752	 1.3669970332	 0.0738985775	-0.228923
O	-0.050532375	-0.0380266157	 0.0115856402	-0.237162
C	 0.6578160304	-0.5611681068	-1.092319995	-0.057723
C	 0.5559473503	-2.0886885062	-1.0522985529	-0.022977
C	-0.9076766547	-2.5414778855	-1.1516590727	-0.416212
C	 1.448213838	-2.6802605339	-2.174264476	 0.03951
O	 2.756277494	-2.1771722547	-2.1136766398	-0.437174
C	 1.4887262893	-4.1958902669	-2.1236918876	 0.133862
O	 2.5329183544	-4.7918822263	-2.000813446	-0.26389
H	 1.0279136678	 1.7387149172	 0.1606326784	 0.107003
H	-0.4610451851	 1.83101005	-0.8153575294	 0.103265
H	-0.5670641257	 1.6742963287	 0.9593512087	 0.126155
H	 0.2303315533	-0.1805847403	-2.0386313106	 0.077208
H	 1.7122230125	-0.2564604587	-1.0582817979	 0.116714
H	 0.9737919642	-2.4121670914	-0.0904094261	 0.094593
H	-1.3116500523	-2.3542082584	-2.1541682528	 0.112549
H	-1.0354493379	-3.6045157809	-0.9292079354	 0.113389
H	-1.5087903145	-1.9745208184	-0.4383960745	 0.146879
H	 0.9842999697	-2.4149644834	-3.1440395577	 0.091072
H	 3.3300792137	-2.9548822435	-2.0209207514	 0.294647
H	 0.5258271728	-4.7325839881	-2.2132662289	 0.107215
49.0382	84.2706	90.711	114.3626	158.4137	212.1862	232.024	266.7995	307.9956	347.1829	347.3282	404.9634	437.9872	478.7354	542.6407	758.2914	824.8721	891.2177	934.0616	950.1189	978.4617	1001.9049	1102.5454	1136.9767	1159.7351	1163.0715	1175.2609	1190.6233	1222.3677	1251.8982	1283.3608	1291.1922	1349.4721	1360.2867	1393.893	1407.5033	1422.0951	1442.921	1480.5634	1484.7446	1495.3899	1504.4468	1511.8164	1531.3321	1806.6229	2923.9723	2936.0368	2963.8858	2970.7479	3014.5579	3028.6624	3034.0582	3041.4359	3101.242	3112.9438	3135.4808	3678.5756
COCC(C)C(O)C=O	COC[C@@H](C)[C@@H](O)C=O	
InChI=1S/C6H12O3/c1-5(4-9-2)6(8)3-7/h3,5-6,8H,4H2,1-2H3	InChI=1S/C6H12O3/c1-5(4-9-2)6(8)3-7/h3,5-6,8H,4H2,1-2H3/t5-,6+/m1/s1
