19
gdb 69105	2.56867	1.56907	1.20729	1.1901	82.08	-0.237	0.0386	0.2756	1086.2961	0.158454	-385.86165	-385.852942	-385.851998	-385.894512	34.2	
O	 0.0079975041	 1.3677257043	-0.1825145183	-0.478239
C	-0.006538537	-0.0015636451	 0.0494160088	 0.399482
C	-0.3297033147	-0.951421799	-1.067794619	-0.383157
C	-1.313702917	-0.8038964124	 0.1012195339	 0.117689
C	-1.1901196552	-1.8244298482	 1.2324128745	-0.279147
C	 0.3265399913	-1.8925166357	 1.536524957	-0.23876
C	 0.8829871315	-0.4982491667	 1.1749356271	-0.256186
C	-2.5404133563	-0.1082527635	-0.1229890223	 0.15855
C	-3.5302458252	 0.5584187846	-0.2939330496	-0.404994
H	-0.9080494209	 1.6707415646	-0.2449720055	 0.285661
H	-0.6375492369	-0.4943471758	-2.0008196414	 0.125227
H	 0.2067455199	-1.888951621	-1.1742376484	 0.114167
H	-1.7446033287	-1.4531540951	 2.1010298253	 0.111833
H	-1.6088035712	-2.8015093418	 0.9710581138	 0.105385
H	 0.5240432086	-2.1606999652	 2.5771528292	 0.105405
H	 0.8013869894	-2.6621957201	 0.9201382916	 0.108919
H	 1.942117059	-0.5251800564	 0.8991448553	 0.106356
H	 0.7787724843	 0.2004696228	 2.0125148197	 0.109512
H	-4.426600325	 1.1033615396	-0.4587400217	 0.192296
107.0413	124.9615	182.9693	219.229	244.9883	354.6754	392.1034	423.9884	484.0403	536.8074	573.8101	584.6266	592.7054	658.2318	682.9081	717.9125	794.403	893.4714	907.3441	912.4856	923.3356	954.4613	1014.2879	1049.202	1073.3044	1091.1553	1174.3832	1201.0849	1217.8217	1243.4871	1266.0342	1301.4559	1329.5917	1340.7741	1374.4211	1407.7347	1470.0208	1491.1689	1494.206	1514.619	2219.809	3042.4217	3044.0593	3053.9229	3082.9186	3084.3785	3106.0497	3130.0479	3226.4172	3500.9191	3741.2039
OC12CC1(CCC2)C#C	O[C@]12C[C@]1(CCC2)C#C	
InChI=1S/C8H10O/c1-2-7-4-3-5-8(7,9)6-7/h1,9H,3-6H2	InChI=1S/C8H10O/c1-2-7-4-3-5-8(7,9)6-7/h1,9H,3-6H2/t7-,8-/m1/s1
