18
gdb 54219	2.22008	1.4799	1.30766	2.031	73.19	-0.2536	-0.0277	0.2259	1088.7855	0.145604	-439.108166	-439.098824	-439.09788	-439.142502	33.745	
C	-0.1779444135	 1.5092250369	-0.0676911837	-0.49532
C	-0.0098099487	 0.0097778706	 0.0496253715	 0.34588
O	 0.0904995867	-0.5564743235	 1.1126551033	-0.30168
C	 0.0170562812	-0.7786310821	-1.2709271692	 0.058351
C	 1.1599629081	-0.3328920575	-2.1891758364	-0.466133
C	-0.1973620052	-2.2973435511	-1.1060956474	-0.127836
O	-1.5011341979	-2.1901549704	-1.7762153972	-0.25669
C	-1.3507676464	-0.8388821834	-1.9467255582	 0.414072
N	-2.0930206875	 0.0227307613	-2.4757386139	-0.550155
H	 0.7607302208	 1.9629369888	-0.4059429776	 0.144972
H	-0.945412238	 1.7506310171	-0.8095403943	 0.175997
H	-0.4334845306	 1.9218386518	 0.9089445571	 0.143572
H	 2.1273054743	-0.4372003989	-1.6872748588	 0.132467
H	 1.1776139336	-0.9408012428	-3.0981890133	 0.134817
H	 1.0324799164	 0.7093901858	-2.4903329869	 0.147666
H	 0.4757593067	-2.9418287758	-1.6752526646	 0.118123
H	-0.3079854352	-2.6397795231	-0.0777256502	 0.148483
H	-2.9562042047	-0.3863765538	-2.8366042801	 0.233412
58.688	117.4808	147.7793	162.3353	212.3858	222.3642	262.3557	346.9018	381.027	448.8507	550.1525	596.9049	622.267	690.2397	761.9403	852.3802	873.1235	907.979	959.4815	971.3705	987.4075	1021.782	1042.9565	1144.7846	1159.1265	1160.5483	1210.8955	1237.4075	1275.9504	1357.8306	1385.6735	1411.7118	1465.448	1478.1353	1495.7445	1496.4495	1514.2172	1800.4232	1817.8127	3039.508	3042.1657	3079.0717	3107.027	3112.0787	3129.5461	3155.4174	3156.415	3481.0123
CC(=O)C1(C)COC1=N	CC(=O)[C@@]1(C)CO[C]1[NH]	
InChI=1S/C6H9NO2/c1-4(8)6(2)3-9-5(6)7/h7H,3H2,1-2H3	InChI=1S/C6H9NO2/c1-4(8)6(2)3-9-5(6)7/h7H,3H2,1-2H3/t6-/m1/s1
