16
gdb 22871	2.78979	1.37998	0.98683	2.4236	68.66	-0.2557	-0.0422	0.2135	1147.3203	0.12298	-475.00004	-474.991497	-474.990553	-475.033684	31.632	
O	-0.0933597629	 1.2814171105	-0.3097595241	-0.377325
N	 0.0271166238	-0.0841930507	-0.0485269673	-0.206976
C	-1.1018261328	-0.627975128	 0.1666041928	 0.36946
C	-1.2151438443	-2.1207113901	 0.4165534417	-0.299032
C	-2.6438004671	-2.4693390767	-0.0633533465	-0.326839
C	-3.4162305236	-1.1957192566	 0.2405215563	 0.353807
O	-4.5402425178	-1.0899738739	 0.6622969591	-0.314954
C	-2.4768061386	 0.011655143	 0.0779003103	-0.031879
O	-2.7410879589	 0.9906011236	 1.0517749825	-0.42775
H	 0.8185821165	 1.5417678218	-0.4800546888	 0.310691
H	-0.4265266188	-2.6812072726	-0.0874254748	 0.132616
H	-1.1317709301	-2.325417569	 1.4914939102	 0.136449
H	-2.6534442749	-2.6341189935	-1.1486677605	 0.139281
H	-3.0966057929	-3.3375344005	 0.4172144018	 0.136868
H	-2.6000153124	 0.4234686385	-0.9410016238	 0.111685
H	-3.6760133952	 0.8772550441	 1.2794601911	 0.293898
44.8611	124.8415	191.0082	239.8906	269.6699	300.7208	386.7801	424.5623	438.0249	500.9926	541.6729	593.1286	644.1685	682.5874	775.602	849.7847	879.9246	960.9726	995.0577	1007.17	1080.5379	1145.2412	1157.8882	1183.9269	1212.6839	1261.4659	1285.501	1317.0772	1331.2842	1397.1366	1423.2755	1460.2099	1482.8269	1753.0095	1846.0748	2935.294	3030.7773	3039.6908	3120.6595	3130.0767	3722.5597	3813.3
ON=C1CCC(=O)C1O	ON=C1CCC(=O)[C@H]1O	
InChI=1S/C5H7NO3/c7-4-2-1-3(6-9)5(4)8/h5,8-9H,1-2H2	InChI=1S/C5H7NO3/c7-4-2-1-3(6-9)5(4)8/h5,8-9H,1-2H2/t5-/m0/s1
