21
gdb 113556	2.42984	1.17619	1.13541	1.519	79.32	-0.2344	0.076	0.3104	1251.5157	0.180411	-424.178445	-424.168835	-424.167891	-424.213096	35.17	
C	-0.0439166688	 1.0901277864	 0.451682446	-0.240736
O	-0.1375276339	-0.0127058008	-0.4297514346	-0.234862
C	-1.3496255249	-0.6896532713	-0.320704034	 0.059767
C	-1.4073093993	-2.0631464457	-0.9167784252	-0.399598
C	-1.4357687453	-1.8927531685	 0.5768892185	 0.243188
C	-0.4034484489	-2.3561822628	 1.5937222872	-0.133262
O	-1.444601717	-2.5884075271	 2.5694376327	-0.300398
C	-2.4933151786	-2.2756202344	 1.614335207	 0.093733
C	-3.447611266	-1.21719061	 2.1302273029	-0.404497
H	 0.9423560042	 1.5360974853	 0.3046489734	 0.129845
H	-0.8126194561	 1.846282002	 0.2310353376	 0.108591
H	-0.1494439759	 0.7875405588	 1.5029631891	 0.115337
H	-2.2325270488	-0.0534220944	-0.4131742176	 0.083793
H	-2.314981421	-2.3609145441	-1.4326094244	 0.115572
H	-0.488441031	-2.444810645	-1.3509805157	 0.126626
H	 0.1271227415	-3.2820714354	 1.3327678614	 0.099356
H	 0.3274612172	-1.61221063	 1.9322409836	 0.106637
H	-3.0474016909	-3.1884152318	 1.3468190647	 0.071493
H	-2.9107150302	-0.2968573338	 2.3781781716	 0.117605
H	-4.2147649872	-0.9876269981	 1.3820292065	 0.113234
H	-3.9525795192	-1.5766248993	 3.0322457291	 0.128576
74.0957	102.7606	133.4993	151.028	203.1794	229.4958	239.7011	316.2854	375.508	453.2686	481.6066	499.1618	616.1091	773.9369	809.3167	868.6153	879.9952	901.4285	991.5607	1001.6432	1040.0296	1054.2188	1072.4003	1087.1777	1101.6722	1129.1901	1143.0405	1153.2519	1177.7261	1182.9914	1222.0786	1247.475	1283.5699	1312.7553	1368.8089	1380.1068	1402.3427	1420.3982	1470.4187	1482.8269	1485.8548	1489.5628	1498.4678	1510.9775	1529.0826	2980.7836	2984.2767	3004.2685	3032.7833	3036.1755	3051.0933	3077.6339	3103.4343	3116.3435	3120.6414	3123.2505	3211.8721
COC1CC11COC1C	CO[C@H]1C[C@]21CO[C@H]2C	
InChI=1S/C7H12O2/c1-5-7(4-9-5)3-6(7)8-2/h5-6H,3-4H2,1-2H3	InChI=1S/C7H12O2/c1-5-7(4-9-5)3-6(7)8-2/h5-6H,3-4H2,1-2H3/t5-,6-,7-/m0/s1
