16
gdb 23561	2.42846	1.59082	1.08618	1.1675	74.49	-0.2369	-0.0053	0.2317	1095.694	0.124439	-433.932674	-433.924821	-433.923877	-433.965047	30.096	
O	-0.0985341923	 1.3098848109	 0.111333707	-0.391752
N	 0.0180729005	-0.0833047134	-0.0303010258	-0.276064
C	-1.1153220967	-0.6433715175	-0.090191449	 0.392454
C	-2.559317699	-0.2611580926	 0.0530383988	-0.170249
N	-3.2826778931	-0.9312167532	-1.0784824036	-0.336291
C	-2.9241461443	-1.7194722276	 0.1160713533	-0.16169
C	-1.4608844274	-2.1111879719	-0.0748887393	 0.333325
C	-0.8166018674	-3.24279319	-0.7699479139	-0.289707
N	-0.7698166126	-3.1318239385	 0.7027107883	-0.379169
H	 0.8226618101	 1.5892658502	 0.1459943225	 0.308631
H	-2.9761950163	 0.5959497502	 0.5614449822	 0.118197
H	-4.262552474	-0.6611309879	-0.9776859674	 0.236821
H	-3.656282951	-2.2169736873	 0.7376094931	 0.115977
H	-1.4231279296	-4.0610888609	-1.1470936714	 0.125696
H	 0.0831700398	-3.0286414822	-1.3400515654	 0.12845
H	 0.1334980233	-2.7684338983	 1.0004937606	 0.245369
127.4562	144.7892	165.8888	270.7628	278.696	326.6037	410.8742	481.1144	560.9092	599.1213	667.2183	770.4783	825.5298	834.3372	848.8769	891.8007	916.7472	942.6715	976.6089	984.8089	1001.762	1057.3395	1083.3531	1099.9075	1116.1874	1138.7528	1222.3609	1266.0857	1292.5072	1307.4332	1336.3754	1400.2623	1446.07	1512.5005	1790.6105	3112.4499	3202.7399	3213.4659	3231.1547	3455.5815	3492.6239	3817.7411
ON=C1C2NC2C11CN1	ON=C1[C@H]2N[C@H]2[C@]21CN2	
InChI=1S/C5H7N3O/c9-8-4-2-3(7-2)5(4)1-6-5/h2-3,6-7,9H,1H2	InChI=1S/C5H7N3O/c9-8-4-2-3(7-2)5(4)1-6-5/h2-3,6-7,9H,1H2/t2-,3+,5-/m0/s1
