22
gdb 107127	2.56832	1.42079	1.21786	1.322	85.94	-0.2119	0.0794	0.2912	1175.9892	0.19299	-367.140773	-367.131658	-367.130714	-367.174257	35.703	
C	-0.1523958691	 1.5767565656	 0.064249983	-0.380667
C	-0.0753888973	 0.0510565752	-0.0758505246	-0.279249
C	-1.4046545267	-0.6436446111	 0.0628718815	 0.346127
C	-1.8353202597	-1.7685264213	-0.7924071757	-0.308986
N	-2.5041381586	-0.4559163084	-0.9570690025	-0.221577
C	-3.4593496479	-0.1841203062	 0.2019655438	 0.380215
C	-4.4718793684	 0.8905561966	-0.0392038562	-0.472076
C	-3.5743419464	-1.2527867287	 1.251489987	-0.357213
C	-2.365765375	-0.3480856699	 1.2356431201	-0.176177
H	 0.8277829364	 2.0316595307	-0.1068592588	 0.111371
H	-0.8540867748	 1.9899786648	-0.6663768316	 0.1337
H	-0.4862208512	 1.8790264231	 1.0619009614	 0.114686
H	 0.3438397608	-0.201930292	-1.0563546208	 0.103469
H	 0.6154760732	-0.3606262403	 0.6732998651	 0.099075
H	-1.2032252887	-1.9998328754	-1.645880372	 0.116047
H	-2.3755211517	-2.6269772418	-0.4115908172	 0.1153
H	-5.2364844844	 0.5501989026	-0.74786933	 0.123878
H	-4.9727357637	 1.1721849083	 0.8921601893	 0.113615
H	-3.9990411034	 1.7817400964	-0.4641162356	 0.126785
H	-4.2873954554	-0.9960406311	 2.0300695746	 0.112678
H	-3.5256785446	-2.3195359421	 1.0627515077	 0.110247
H	-2.1050067536	 0.2886912649	 2.0711908313	 0.088751
78.6368	113.1189	186.4042	214.1097	222.2119	290.362	322.6818	380.9333	454.7465	485.527	528.5186	574.6346	613.9659	722.7464	775.4863	800.5629	811.0381	868.5691	911.8584	942.1099	945.5609	978.0649	1000.1423	1015.8916	1040.8831	1059.3106	1090.8753	1094.2897	1102.4142	1123.6371	1136.1989	1199.007	1213.2653	1269.4412	1328.7718	1339.0782	1381.8788	1401.3444	1405.2979	1423.0281	1471.2576	1473.913	1482.4127	1497.4879	1498.6478	1507.8248	1529.1123	3013.0701	3026.1047	3039.9648	3060.742	3088.3966	3107.2454	3107.9954	3115.804	3118.8562	3131.3192	3188.8339	3197.6306	3209.4921
CCC12CN1C1(C)CC21	CC[C@]12CN1[C@@]1(C)C[C@@H]21	
InChI=1S/C8H13N/c1-3-8-5-9(8)7(2)4-6(7)8/h6H,3-5H2,1-2H3	InChI=1S/C8H13N/c1-3-8-5-9(8)7(2)4-6(7)8/h6H,3-5H2,1-2H3/t6-,7+,8-,9?/m1/s1
