14
gdb 132949	2.38305	1.80134	1.02688	2.3115	70.84	-0.2022	-0.029	0.1732	1051.6166	0.102069	-477.986863	-477.97945	-477.978505	-478.018552	28.961	
N	 0.0558467199	 1.3646088243	-0.0254234448	-0.585761
C	-0.0094044053	-0.0139284992	 0.0285793178	 0.204098
C	-1.1557184269	-0.732265295	 0.0755555549	-0.03783
O	-1.1974207312	-2.0934899658	 0.1876195609	-0.189914
C	-0.0348890007	-2.7625763036	 0.2578628873	-0.051007
C	 1.1547771371	-2.1368252021	 0.210731304	 0.124584
F	 2.2843160442	-2.8528873694	 0.2724525146	-0.079064
C	 1.287464579	-0.7030088113	 0.0776550518	 0.178999
N	 2.3769602023	-0.0212599087	-0.0094970169	-0.579358
H	 0.9805677122	 1.6807720569	-0.2933260008	 0.271836
H	-0.7031870047	 1.8432563002	-0.4840149903	 0.247262
H	-2.1507457537	-0.3115261207	 0.0393797165	 0.125129
H	-0.1568402011	-3.8330654363	 0.3506696478	 0.149001
H	 3.1886270789	-0.6379632194	 0.0306852572	 0.222025
116.0662	252.9632	302.4744	320.7882	329.1518	374.0852	461.6863	476.0785	511.0167	523.0635	579.4737	620.3732	685.8807	771.4822	813.372	857.6185	860.0598	876.6598	988.8472	1065.863	1150.4197	1233.7072	1283.704	1320.2321	1348.6033	1400.5849	1487.1554	1615.2977	1646.2092	1672.7007	1705.2119	3231.7065	3236.0047	3481.4327	3534.8013	3668.5001
NC1=COC=C(F)C1=N	NC1=COCC(=C1[NH])F	
InChI=1S/C5H5FN2O/c6-3-1-9-2-4(7)5(3)8/h1-2,8H,7H2	InChI=1S/C5H6FN2O/c6-3-1-9-2-4(7)5(3)8/h2,8H,1,7H2
