17
gdb 41672	2.83625	2.11673	1.64638	1.6623	70.87	-0.2361	0.0069	0.2431	855.5783	0.139257	-421.807618	-421.801345	-421.800401	-421.838024	26.143	
C	-0.0344530447	 1.4066718026	-0.0551859631	 0.028318
O	 1.2247736299	 2.0429126295	 0.0404850068	-0.237769
C	 2.076473451	 1.5766795629	-0.9615541108	 0.091568
C	 3.2409881112	 0.6456597884	-0.6361390763	-0.132131
C	 3.2898922138	 0.0484310093	 0.72606196	-0.061672
C	 2.1974727885	-0.6688184192	 0.9825408084	-0.085232
C	 1.2133593317	-0.63624854	-0.1752550134	 0.06303
O	 0.0067177675	 0.0372995516	 0.2527971167	-0.275572
C	 1.9737928885	 0.1131138793	-1.2828042061	-0.16387
H	-0.6891336225	 1.8816082929	 0.6792603535	 0.117592
H	-0.4356648873	 1.5559906506	-1.0719204103	 0.080399
H	 2.23412212	 2.2858729918	-1.7723905753	 0.095272
H	 4.147624789	 0.7920389244	-1.2118774869	 0.091856
H	 4.101504347	 0.2405767751	 1.4178792089	 0.103303
H	 1.9400301981	-1.1391630561	 1.9235651228	 0.102476
H	 0.8851535085	-1.6301038439	-0.4932299332	 0.08804
H	 1.9320683598	-0.2393525093	-2.3051923917	 0.094392
153.1017	248.7267	331.9066	413.2933	490.493	554.4827	616.1725	664.2297	760.2021	778.9111	789.0833	801.564	835.581	915.6355	942.2417	948.4866	972.5236	982.9819	1019.9902	1028.4731	1042.8113	1063.6707	1104.3097	1112.3011	1131.9636	1173.3367	1219.4795	1292.5954	1297.5425	1301.9535	1343.5726	1349.9008	1376.4899	1399.7565	1447.7592	1524.1372	1676.6767	2954.2407	3060.5609	3101.4735	3116.0247	3177.5763	3191.9215	3196.3047	3222.1138
C1OC2C3C=CC(O1)C23	C1O[C@H]2[C@H]3C=C[C@@H](O1)[C@@H]23	
InChI=1S/C7H8O2/c1-2-5-6-4(1)7(6)9-3-8-5/h1-2,4-7H,3H2	InChI=1S/C7H8O2/c1-2-5-6-4(1)7(6)9-3-8-5/h1-2,4-7H,3H2/t4-,5+,6-,7-/m0/s1
