20
gdb 108248	2.56196	1.31514	1.29557	1.2307	74.42	-0.2314	0.0539	0.2853	1123.2699	0.170677	-440.238141	-440.229192	-440.228248	-440.271837	33.819	
C	-0.2909502308	 1.4620775902	-0.0394200735	-0.482178
C	 0.0672581341	 0.0022642612	 0.0202335355	 0.378438
C	 1.2352223398	-0.5658570516	-0.8159626705	-0.213512
N	 1.7337211025	-1.3198497295	 0.3765312086	-0.380684
C	 0.6247429195	-0.8140121654	 1.2317449622	 0.223424
C	 1.1296756543	-0.2924748233	 2.5629467567	-0.147578
O	 1.9619284009	-1.2586031273	 3.1808090378	-0.419373
C	-0.6865947079	-1.6080974619	 1.122759149	-0.123885
O	-1.0892919974	-0.8681021041	-0.0539467343	-0.333802
H	 0.5971337593	 2.0900871276	 0.0808563345	 0.123819
H	-0.7414362049	 1.6936797013	-1.0114040301	 0.133117
H	-1.0161848628	 1.722414293	 0.7367488841	 0.126783
H	 0.9019856781	-1.1770956499	-1.6601311426	 0.11047
H	 1.9672267393	 0.1700110014	-1.168339656	 0.104427
H	 1.7223413054	-2.3275176358	 0.2543340544	 0.222804
H	 1.670140564	 0.6545603438	 2.4028745254	 0.085978
H	 0.3034617972	-0.0925152901	 3.2528403005	 0.106276
H	 2.6408851368	-1.4569160911	 2.5214531768	 0.285803
H	-0.5937900369	-2.6853706617	 0.9340207272	 0.097362
H	-1.3899040706	-1.4509093269	 1.9519851344	 0.10231
73.3511	111.8906	147.4124	187.4577	263.4036	300.985	339.4955	365.6202	399.0717	502.9279	515.0001	611.0795	661.0648	750.3783	837.1609	856.3307	902.2737	918.5695	951.9412	964.9808	999.3515	1007.1482	1051.9133	1083.4448	1129.9561	1135.1658	1155.1642	1197.2023	1206.6994	1241.0916	1255.726	1278.1823	1344.4258	1354.4143	1378.2233	1380.4181	1410.2099	1437.3585	1479.8985	1487.7823	1498.2776	1501.0925	1519.3453	2971.0967	2999.886	3026.598	3034.8841	3045.8978	3074.7928	3085.8203	3101.2917	3116.5609	3516.8085	3751.9664
CC12CNC1(CO)CO2	C[C@@]12CN[C@]1(CO)CO2	
InChI=1S/C6H11NO2/c1-5-2-7-6(5,3-8)4-9-5/h7-8H,2-4H2,1H3	InChI=1S/C6H11NO2/c1-5-2-7-6(5,3-8)4-9-5/h7-8H,2-4H2,1H3/t5-,6-/m1/s1
