16
gdb 62406	2.38256	1.54437	1.3587	3.5268	75.75	-0.2373	-0.0288	0.2085	1026.1765	0.121991	-400.679754	-400.671198	-400.670254	-400.71267	32.239	
C	-0.0339607036	 1.5839545787	-0.071404893	-0.454929
C	-0.0054427681	 0.054005189	-0.0488599541	-0.008841
C	-1.3020029645	-0.5340541073	 0.2401744875	 0.282198
C	-2.3736460653	-1.0242122775	 0.4798894434	-0.44341
C	 0.7108668117	-0.6806076276	-1.2178072337	-0.078545
N	 2.0813040078	-0.1725671864	-1.2421064342	-0.337892
C	 1.7308816457	-1.307050719	-0.31409549	-0.179028
C	 1.0928036672	-0.6376439272	 0.8792251463	 0.426155
O	 1.2330828163	-0.6983994209	 2.0604824147	-0.298118
H	 0.9449362064	 1.9695455088	-0.3619872633	 0.145387
H	-0.7882059848	 1.9455833929	-0.7764307556	 0.125072
H	-0.2865598732	 1.9632598001	 0.9223267303	 0.141035
H	-3.320820299	-1.4519855322	 0.6986959934	 0.198569
H	 0.2286667177	-1.118301229	-2.0815797556	 0.117793
H	 2.5654092005	-0.5985935974	-2.0323975612	 0.244584
H	 2.2551608352	-2.2520392049	-0.3724433247	 0.11997
109.7335	129.8661	172.2772	205.8743	221.3095	266.2061	387.3734	470.1072	479.1649	543.6723	622.5469	644.8566	649.8123	678.0193	732.5697	826.0423	830.2979	849.2686	919.5922	949.5502	965.4665	1049.6837	1083.2101	1100.4842	1133.257	1160.0739	1216.7116	1262.8524	1314.3479	1347.8215	1398.7137	1489.2008	1496.2706	1906.397	2229.8693	3048.0079	3119.3222	3142.8013	3203.2046	3216.3952	3474.738	3500.7108
CC1(C#C)C2NC2C1=O	C[C@@]1(C#C)[C@H]2N[C@H]2C1=O	
InChI=1S/C7H7NO/c1-3-7(2)5-4(8-5)6(7)9/h1,4-5,8H,2H3	InChI=1S/C7H7NO/c1-3-7(2)5-4(8-5)6(7)9/h1,4-5,8H,2H3/t4-,5+,7-/m1/s1
