17
gdb 43997	3.60352	1.4672	1.38854	1.463	72.16	-0.2188	0.0177	0.2366	974.9366	0.13785	-417.953657	-417.946658	-417.945714	-417.984999	28.486	
N	 0.0087296123	 1.1768065228	 0.5025738319	-0.520746
C	 0.0174556337	 0.0181562562	 0.0154942991	 0.383776
C	-1.2265833409	-0.8740582706	-0.1803874518	-0.387192
C	-0.6990435743	-2.0603030721	-0.9435127354	 0.227416
C	-0.0032094889	-1.9037420122	-2.2691208318	-0.355424
C	 0.7952551657	-1.8686912058	-0.9933427516	 0.289969
C	 0.9359852798	-3.2118674594	-0.2696085803	-0.230162
N	-0.5382158987	-3.4620015734	-0.4623920475	-0.375979
O	 1.1569208071	-0.6326878243	-0.443843472	-0.26771
H	 0.9483919146	 1.5747127807	 0.5244560095	 0.230867
H	-1.6129617989	-1.1668860729	 0.8012076459	 0.136209
H	-2.0128702674	-0.3008146042	-0.6767018954	 0.147511
H	 0.0579495548	-2.7688532408	-2.9209371108	 0.130966
H	-0.1018470173	-0.9448480638	-2.7662171759	 0.133049
H	 1.5824647327	-3.9745743627	-0.7153665938	 0.113935
H	 1.2254174292	-3.0538392682	 0.7742473936	 0.117401
H	-1.0182219534	-3.6248010793	 0.4161958763	 0.226114
83.1733	212.9415	325.3014	359.2393	407.9485	443.1562	522.1159	589.0492	600.6275	646.8743	743.403	779.8305	804.8004	836.2643	858.0541	886.2432	937.3909	946.145	956.7992	988.1208	1000.8043	1031.8526	1072.6282	1121.6682	1141.6856	1200.4126	1224.6013	1243.8177	1279.888	1296.9087	1303.3261	1354.5215	1402.5975	1463.5882	1474.303	1505.415	1780.9166	3038.667	3063.6169	3090.9752	3108.2816	3131.9326	3229.8328	3485.3762	3533.8723
N=C1CC23CC2(CN3)O1	[NH][C]1C[C@@]23C[C@@]2(CN3)O1	
InChI=1S/C6H8N2O/c7-4-1-5-2-6(5,9-4)3-8-5/h7-8H,1-3H2	InChI=1S/C6H8N2O/c7-4-1-5-2-6(5,9-4)3-8-5/h7-8H,1-3H2/t5-,6+/m1/s1
