16
gdb 81716	3.16043	1.29963	1.03245	5.6019	76.02	-0.2632	-0.0369	0.2263	1147.74	0.123708	-400.757933	-400.749614	-400.748669	-400.790955	30.618	
C	-0.1012692645	 1.6223132008	-0.038781325	-0.418118
C	 0.0692692154	 0.1086647627	-0.0387599956	-0.105578
C	 0.7266441866	-0.6149240316	-1.2312996777	-0.116926
C	 2.1608204512	-0.2599481634	-1.3435575048	-0.314654
C	 1.7633957408	-1.3037557902	-0.2888644613	 0.097629
C	 2.2884268765	-2.6264566475	-0.2956702157	 0.190857
N	 2.7024920019	-3.7072692785	-0.287284207	-0.34363
C	 1.1257814205	-0.5657140965	 0.8779193525	 0.343234
O	 1.2877942939	-0.6008833084	 2.059000277	-0.287033
H	 0.819862812	 2.1391439257	-0.3228781446	 0.12471
H	-0.8886463612	 1.9277101033	-0.7346130955	 0.129926
H	-0.3817370123	 1.9649065825	 0.9614978863	 0.146434
H	-0.8841357689	-0.3757107086	 0.2084053391	 0.123876
H	 0.190788041	-1.1167392707	-2.0257294976	 0.130718
H	 2.704461417	-0.6813502019	-2.1820102619	 0.15626
H	 2.5318084703	 0.7033740923	-1.0085076082	 0.142293
93.4499	131.2572	175.51	184.9328	231.7326	272.1511	401.2207	457.1243	532.0211	544.519	609.6231	637.4923	737.9077	788.0284	843.1868	862.7712	922.4542	970.7244	996.7676	1024.0357	1079.18	1085.9323	1111.016	1143.2224	1198.4758	1243.2617	1280.1706	1346.3998	1368.0009	1412.0756	1488.9404	1494.4909	1502.0142	1897.9002	2348.1371	3038.8736	3042.781	3112.3066	3117.8207	3134.7187	3213.9267	3225.1475
CC1C2CC2(C#N)C1=O	C[C@H]1[C@H]2C[C@@]2(C#N)C1=O	
InChI=1S/C7H7NO/c1-4-5-2-7(5,3-8)6(4)9/h4-5H,2H2,1H3	InChI=1S/C7H7NO/c1-4-5-2-7(5,3-8)6(4)9/h4-5H,2H2,1H3/t4-,5+,7-/m0/s1
