16
gdb 66502	2.64808	1.96038	1.64288	3.3684	72.56	-0.2381	-0.0177	0.2203	881.5749	0.123125	-400.649498	-400.642054	-400.64111	-400.680898	29.286	
C	 0.1801608681	 1.2759246976	-0.098365917	-0.487728
C	 0.1888403675	-0.2456643867	-0.0598103586	 0.260445
C	-0.1314157019	-0.9984486325	-1.3448437193	-0.105789
C	 1.2829344746	-0.8299256728	 0.8283435614	-0.186609
C	 0.6057565561	-1.9342371163	 1.3935377569	 0.325658
N	 1.5229407319	-2.4849137679	 0.736178849	-0.289129
C	-1.2076205603	-1.6378895671	-0.8703862755	-0.092394
C	-1.1350047182	-1.0177505995	 0.4985788796	-0.006661
O	-0.7275362434	-1.9661080551	 1.5653852629	-0.259274
H	 1.0314608288	 1.6479350785	-0.6786783875	 0.131061
H	-0.7350137329	 1.6536501505	-0.5638324154	 0.124771
H	 0.2521602495	 1.6980448677	 0.9094513698	 0.128361
H	 0.374572652	-1.0010181871	-2.3038835527	 0.11915
H	 2.063500502	-0.2499352978	 1.3006293476	 0.115865
H	-1.8907703608	-2.3677957892	-1.2855547861	 0.119729
H	-1.9746541731	-0.4444672623	 0.8922565749	 0.102545
142.9343	201.6201	222.4626	258.8778	314.3892	375.1537	477.4332	522.2973	593.1679	614.0631	666.5973	705.1349	806.5815	812.5814	860.9131	886.0301	901.9205	938.1841	961.9775	983.6921	1007.7702	1084.7213	1133.2376	1150.4395	1173.8551	1215.6405	1245.3525	1302.5465	1329.0381	1364.5344	1408.1115	1492.7346	1493.8843	1629.7826	1782.3034	3032.253	3100.0865	3109.0118	3117.1002	3190.2515	3210.9648	3225.8265
CC12C3C1C1=NC3C2O1	C[C@@]12C=C[C@H]2O[C]2[C@H]1[N]2	
InChI=1S/C7H7NO/c1-7-2-3(7)6-8-4(2)5(7)9-6/h2-5H,1H3	InChI=1S/C7H7NO/c1-7-3-2-4(7)9-6-5(7)8-6/h2-5H,1H3/t4-,5-,7+/m1/s1
