15
gdb 64903	2.04871	1.72139	1.11488	6.7891	71.43	-0.2617	-0.0059	0.2558	1078.7538	0.112544	-412.980125	-412.971106	-412.970162	-413.01353	33.207	
N	-0.1141139321	 1.4183842354	 0.0274313707	-0.556785
C	-0.0174373345	-0.0172704953	-0.0053522592	 0.108817
C	-0.4583427857	-0.7536510137	 1.243865794	-0.339677
C	-1.3719274822	-0.7624514504	 0.0254341972	 0.129726
N	-2.550804408	 0.0488432392	-0.0730350562	-0.56462
C	-1.4655773337	-2.013235132	-0.6978196277	 0.306185
N	-1.5612977588	-3.0269710809	-1.244557509	-0.335373
C	 1.0682568794	-0.57981126	-0.7815038323	 0.263346
N	 1.9629567509	-0.9625246717	-1.4065543548	-0.333815
H	 0.6356301342	 1.8153908872	 0.58522846	 0.257645
H	-0.0431653277	 1.8061621293	-0.9085471066	 0.262243
H	 0.0724452248	-1.66082289	 1.505713822	 0.160762
H	-0.7741433228	-0.1275395542	 2.0705516713	 0.140875
H	-3.280361897	-0.3017186991	 0.5389942406	 0.247061
H	-2.3164857769	 0.9988529565	 0.2000662301	 0.253609
107.5663	114.9521	183.7774	204.6695	210.768	288.4828	333.8278	369.0591	418.6413	437.3773	481.6098	567.0695	595.542	641.4204	674.8545	731.7252	820.4298	867.8673	894.8437	910.6073	954.7202	1070.2975	1082.3024	1198.6017	1252.8911	1287.0577	1318.274	1366.5184	1458.559	1633.7993	1659.0939	2348.9479	2361.0014	3146.1404	3248.2034	3494.4312	3501.6519	3580.7211	3582.7822
NC1(CC1(N)C#N)C#N	N[C@]1(C[C@]1(N)C#N)C#N	
InChI=1S/C5H6N4/c6-2-4(8)1-5(4,9)3-7/h1,8-9H2	InChI=1S/C5H6N4/c6-2-4(8)1-5(4,9)3-7/h1,8-9H2/t4-,5+
