17
gdb 78335	2.91163	1.38572	1.06805	3.6379	75.89	-0.2508	-0.0099	0.2408	1148.0215	0.135044	-417.940071	-417.931964	-417.93102	-417.972626	30.725	
C	-0.0736184749	 1.4220910894	-0.0022011384	-0.415374
C	 0.0631484441	-0.0768324661	-0.0918670065	-0.001055
C	 0.8106684041	-0.7069581515	-1.1951297642	-0.161978
N	 1.4364635703	-0.595489495	 0.2053073423	-0.195413
C	 1.3171480267	-2.047018627	 0.3254987236	 0.283222
N	 1.6697149053	-2.8485155939	 1.223004723	-0.5246
C	 0.7523687041	-2.2173330252	-1.0643701161	 0.424802
C	-0.1099315548	-3.2348927816	-1.6706487962	-0.261988
O	 1.2768346391	-3.1155500831	-2.0145955641	-0.263224
H	 0.8010720425	 1.9169094175	-0.431756176	 0.135219
H	-0.9661374082	 1.7562634739	-0.5411578456	 0.125997
H	-0.1651455464	 1.7373131764	 1.0413815302	 0.134163
H	-0.7657504368	-0.641413889	 0.3340886772	 0.103005
H	 1.2318847069	-0.1671631877	-2.0347397369	 0.123504
H	 2.0840187483	-2.3462815508	 2.012699511	 0.232331
H	-0.3694314965	-4.1210045289	-1.0947810605	 0.138837
H	-0.8121916939	-2.9441946875	-2.4504472528	 0.122551
117.3492	163.5038	204.5147	220.6297	239.0322	261.175	381.4747	435.6321	485.7922	626.3116	674.8265	724.9838	762.1075	822.5329	884.0726	909.3082	920.4503	950.9135	971.2068	997.8664	1026.3416	1059.9694	1125.0328	1146.4166	1149.0882	1156.1079	1162.3315	1220.3605	1272.5303	1287.6877	1408.8883	1427.7524	1448.7336	1487.7638	1494.7198	1527.9789	1814.1419	3042.2667	3088.5774	3108.0717	3111.122	3130.3653	3184.1667	3195.2726	3448.2809
CC1C2N1C(=N)C21CO1	C[C@H]1[C@H]2N1[C]([NH])[C@]12CO1	
InChI=1S/C6H8N2O/c1-3-4-6(2-9-6)5(7)8(3)4/h3-4,7H,2H2,1H3	InChI=1S/C6H8N2O/c1-3-4-6(2-9-6)5(7)8(3)4/h3-4,7H,2H2,1H3/t3-,4+,6+,8?/m0/s1
