19
gdb 35775	3.62741	1.15178	0.97238	1.6728	80.68	-0.2569	0.0545	0.3115	1226.4321	0.160207	-385.857799	-385.849748	-385.848804	-385.890306	31.757	
C	 0.0947328827	-1.2342642453	 0.0741094654	-0.432965
C	 0.0272531024	-0.0341984926	 0.0427081094	 0.296788
C	-0.0391157711	 1.4232554219	 0.0260595302	-0.174067
C	-0.7843209392	 1.9833080497	 1.2587934817	-0.202606
C	-1.016164388	 3.4921134649	 1.1072211781	-0.257051
C	 0.2575287895	 4.2360427671	 0.7753282395	 0.071395
O	 1.4012605575	 3.9120108826	 1.5688772528	-0.254303
C	 1.4095800839	 3.5321986307	 0.1845018999	 0.025952
C	 1.3775403378	 2.0411874592	-0.0995835147	-0.224502
H	 0.1484734032	-2.2944530584	 0.0948700948	 0.191773
H	-0.6133310717	 1.724992819	-0.8625542402	 0.100835
H	-1.7409141906	 1.4669363815	 1.3762168256	 0.107391
H	-0.193277668	 1.7840317502	 2.157921927	 0.124734
H	-1.7438345625	 3.683730882	 0.306780409	 0.102767
H	-1.4480556214	 3.9042133222	 2.0270300346	 0.109462
H	 0.1438042745	 5.3022171877	 0.5722892992	 0.086171
H	 2.1119129358	 4.111100487	-0.4158121672	 0.089828
H	 2.0550500031	 1.5422091215	 0.6018271937	 0.128344
H	 1.7671218522	 1.849499809	-1.1043420387	 0.110052
88.6534	147.0926	187.195	279.2328	342.773	354.7772	408.7418	500.966	514.2759	556.6314	626.5199	636.2293	657.8016	772.1993	802.0553	825.0386	891.4439	911.1662	941.4334	1010.2639	1034.1487	1043.2455	1050.9731	1073.3298	1129.7053	1161.9914	1190.1994	1238.2085	1275.4838	1290.9358	1314.8387	1326.2749	1355.5061	1375.45	1380.7358	1394.6504	1464.7201	1477.1326	1485.3894	1494.0915	2235.2945	2991.2704	3018.9054	3046.909	3054.2753	3065.2685	3087.6768	3092.7933	3104.8492	3108.7886	3505.2627
C#CC1CCC2OC2C1	C#C[C@H]1CC[C@H]2O[C@H]2C1	
InChI=1S/C8H10O/c1-2-6-3-4-7-8(5-6)9-7/h1,6-8H,3-5H2	InChI=1S/C8H10O/c1-2-6-3-4-7-8(5-6)9-7/h1,6-8H,3-5H2/t6-,7+,8-/m0/s1
