17
gdb 126886	6.09693	0.82382	0.7439	2.2193	74.86	-0.2395	-0.0042	0.2354	1544.7019	0.134176	-455.143224	-455.134132	-455.133188	-455.178772	31.827	
C	 1.0803956087	 0.7184981447	-0.2503054211	-0.365201
C	-0.4009787511	 0.3734960828	-0.120298255	-0.135809
N	-0.6748243445	-0.9155109203	-0.7514477924	-0.374483
C	-1.8114911331	-1.1390950349	-1.2098450455	 0.536057
O	-2.9254003661	-0.3432020772	-1.2243798553	-0.256385
N	-3.9728936575	-1.0423919669	-1.8893601827	-0.174333
C	-3.4524677784	-2.1692148787	-2.2042044552	 0.41619
C	-4.1287745469	-3.2775137691	-2.9165333466	-0.492433
O	-2.1587323637	-2.3225693164	-1.8325148948	-0.224664
H	 1.3010848089	 1.6641754335	 0.254714345	 0.108284
H	 1.6972878511	-0.0676596685	 0.1940955682	 0.125302
H	 1.3650555283	 0.8151165177	-1.3023333881	 0.119554
H	-0.6699026808	 0.3074175022	 0.9429093196	 0.111386
H	-1.0164927754	 1.1759262704	-0.5496362635	 0.11071
H	-5.1568203189	-2.9909408951	-3.1387290148	 0.168909
H	-3.6026291172	-3.5058570527	-3.8482683381	 0.163449
H	-4.1257598433	-4.1812618915	-2.2997734397	 0.163466
14.7676	101.3701	131.3191	166.004	209.7972	280.1459	300.9773	305.2157	372.3149	519.6681	632.611	668.5032	719.2536	752.1503	800.5724	885.7624	907.4616	942.2271	1011.1132	1029.4765	1071.2188	1107.9064	1121.8702	1147.8843	1187.6067	1306.5289	1357.6309	1391.0995	1412.2733	1428.127	1470.1372	1475.3406	1486.9346	1488.7289	1507.6656	1706.7121	1841.8803	3000.568	3033.0265	3040.2561	3053.4202	3112.2413	3115.2657	3119.0638	3162.5414
CCN=C1ON=C(C)O1	CCN=c1onc(C)o1	
InChI=1S/C5H8N2O2/c1-3-6-5-8-4(2)7-9-5/h3H2,1-2H3	InChI=1S/C5H8N2O2/c1-3-6-5-8-4(2)7-9-5/h3H2,1-2H3
