14
gdb 133204	3.05518	1.39843	0.96508	3.5298	71.11	-0.2427	-0.0706	0.1721	1134.4235	0.099448	-477.955824	-477.948047	-477.947103	-477.988323	28.853	
C	-0.2664433535	 1.4915284405	-0.0045314995	-0.471905
C	 0.022406452	 0.0166168302	-0.0034189291	 0.361284
N	 0.1583761052	-0.5342221568	-1.1622803415	-0.135791
O	 0.4284002021	-1.909466695	-1.1910948602	-0.291805
C	 0.5571675975	-2.7056513358	-0.0711841509	 0.319756
N	 0.8020687418	-3.9459564283	-0.1507236207	-0.519795
C	 0.3907859749	-2.0133752102	 1.2015137609	 0.262577
F	 0.5086620764	-2.7493454714	 2.2856951776	-0.027041
C	 0.1324464818	-0.7000760947	 1.2482935715	-0.311571
H	 0.5137590035	 2.0362186657	 0.5383958136	 0.1432
H	-0.3141557595	 1.8622561954	-1.028796062	 0.157657
H	-1.2189239117	 1.6968516428	 0.4962672722	 0.143204
H	 0.8823037846	-4.2347665855	-1.127067288	 0.236462
H	 0.0087992448	-0.1855959169	 2.1931846261	 0.133766
85.4662	163.2999	193.3324	289.4529	318.0429	325.4089	403.8085	457.6182	504.3131	561.2027	620.11	684.2653	755.1254	808.4813	864.4702	902.0918	914.1463	992.0091	1042.4163	1061.8707	1063.4601	1181.9152	1243.0787	1376.3992	1412.7013	1418.3796	1474.0623	1479.3531	1626.7095	1705.2635	1740.9873	3038.3819	3094.7936	3153.7008	3212.7177	3483.6506
CC1=NOC(=N)C(F)=C1	CC1=NOC(=C(F)[CH]1)[NH]	
InChI=1S/C5H5FN2O/c1-3-2-4(6)5(7)9-8-3/h2,7H,1H3	InChI=1S/C5H5FN2O/c1-3-2-4(6)5(7)9-8-3/h2,7H,1H3
