19
gdb 105322	2.44643	1.53345	1.17852	0.9845	81.46	-0.2482	0.0376	0.2858	1122.2343	0.157307	-385.811555	-385.802671	-385.801726	-385.844763	34.105	
C	-0.0148733594	 1.3437371511	 0.1089691223	-0.253966
O	-0.0880227809	-0.0607332113	-0.0464560007	-0.277619
C	 0.6296330818	-0.5785141586	-1.1477924394	 0.222205
C	 2.2121967395	-0.5854680425	-1.0347365628	-0.308514
C	 2.1773700078	-2.1151538435	-1.0694917079	-0.024316
C	 1.3519881424	-2.6310261531	 0.0717560902	-0.294548
C	 0.6495442564	-2.1129232854	-1.1516503368	-0.085135
C	 0.1630945264	-0.0264697628	-2.4203701559	 0.302737
C	-0.2249888144	 0.423634895	-3.465836383	-0.465014
H	 1.0220174449	 1.6874422765	 0.236691327	 0.105921
H	-0.4544000612	 1.8719792617	-0.7469195802	 0.121469
H	-0.5803385766	 1.587445753	 1.0111115116	 0.126855
H	 2.6884786903	-0.1256845302	-1.901108876	 0.117845
H	 2.6085392636	-0.1382797164	-0.1177316224	 0.102041
H	 2.8743119936	-2.7403559559	-1.612099347	 0.087585
H	 1.3221844413	-3.7103057436	 0.1806250599	 0.111961
H	 1.2930875406	-2.0794671788	 1.0050766681	 0.120373
H	-0.0163704901	-2.7211563001	-1.7494782345	 0.094671
H	-0.5693053857	 0.8190523749	-4.3895597125	 0.19545
121.6031	125.0757	160.8253	178.6755	198.0871	282.4005	376.2588	417.8447	470.0676	504.4155	548.2759	617.1227	639.2698	661.2641	746.0911	794.5919	843.1295	897.0243	938.7917	959.1721	974.7223	1019.7888	1041.3399	1065.1538	1084.0618	1094.8389	1143.7208	1149.3314	1185.8367	1191.2835	1223.9505	1232.6321	1246.1004	1304.2109	1360.3104	1471.3034	1476.8228	1487.6469	1493.069	1511.5658	2227.3043	2994.1413	3051.8242	3055.4236	3120.9851	3124.4406	3129.6707	3193.1367	3200.8516	3214.3052	3499.8192
COC1(CC2CC12)C#C	CO[C@]1(C[C@H]2C[C@@H]12)C#C	
InChI=1S/C8H10O/c1-3-8(9-2)5-6-4-7(6)8/h1,6-7H,4-5H2,2H3	InChI=1S/C8H10O/c1-3-8(9-2)5-6-4-7(6)8/h1,6-7H,4-5H2,2H3/t6-,7-,8+/m1/s1
