17
gdb 33468	2.53794	1.42393	1.14286	2.5379	72.81	-0.2619	0.0101	0.272	1115.5188	0.136495	-417.968674	-417.960241	-417.959297	-418.002746	30.265	
N	-0.1648519594	-1.110573011	 0.1620883764	-0.346896
C	-0.1181144089	 0.0451149055	 0.1400517102	 0.241992
C	-0.0449079852	 1.4873452666	 0.0648775545	 0.153804
C	 0.5999966522	 2.1936582089	 1.215746607	-0.259306
N	 1.2922025392	 2.1085745881	-0.0700874558	-0.342694
C	-1.1482178802	 2.1640104725	-0.7225022798	 0.111973
C	-1.5643714411	 1.5695433761	-2.0867578957	-0.318304
C	-2.9521923638	 1.4185680279	-1.4319422627	-0.060828
O	-2.4470548412	 1.8993782887	-0.1620763542	-0.291944
H	 0.2338984191	 3.1816998747	 1.478723835	 0.142362
H	 0.9471198622	 1.5883967905	 2.0472677957	 0.142697
H	 2.0154304799	 1.394079326	-0.0430399373	 0.255656
H	-0.9176867649	 3.2368398961	-0.7449656082	 0.089125
H	-1.4984946101	 2.2514520231	-2.9344698061	 0.120294
H	-1.0751343292	 0.627309567	-2.3382950565	 0.132224
H	-3.7329217169	 2.0773248826	-1.8295879438	 0.107562
H	-3.3443370217	 0.3999516567	-1.3502111886	 0.122284
51.8317	70.7643	146.8727	172.1971	245.7575	270.5749	364.1702	444.4472	578.6497	604.6525	673.9487	784.3561	826.5121	856.7944	888.2148	927.1153	955.5382	966.3931	1001.8689	1031.2811	1037.8587	1095.4317	1109.923	1139.4426	1166.2984	1216.2322	1252.1181	1263.1954	1272.7006	1303.8016	1343.2662	1358.4624	1401.4053	1489.0044	1506.0118	1528.7606	2348.956	3023.3881	3032.1743	3080.0485	3089.1054	3120.7618	3146.9283	3214.1993	3512.8859
N#CC1(CN1)C1CCO1	N#C[C@]1(CN1)[C@H]1CCO1	
InChI=1S/C6H8N2O/c7-3-6(4-8-6)5-1-2-9-5/h5,8H,1-2,4H2	InChI=1S/C6H8N2O/c7-3-6(4-8-6)5-1-2-9-5/h5,8H,1-2,4H2/t5-,6+/m1/s1
