19
gdb 49291	3.17141	1.18737	0.91088	3.501	85.26	-0.2431	-0.0477	0.1954	1275.034	0.160284	-385.918629	-385.910378	-385.909434	-385.951774	31.369	
O	-0.1614628666	-0.0321705436	-0.0614218008	-0.282308
C	-0.0621634232	 1.1740582529	-0.0563079529	 0.10523
C	 1.2130806484	 1.9212979465	 0.023299315	 0.199807
C	 1.1070032487	 3.2608575954	 0.0223908493	-0.097603
C	 2.1723975023	 4.3155809314	 0.0695966447	-0.250821
C	 3.6143256941	 3.8405261842	-0.1801760595	-0.263453
C	 4.0944161145	 2.8440040144	 0.845473168	-0.055096
C	 3.5769728003	 1.6239984449	 0.9714194299	-0.052466
C	 2.4699118469	 1.078885223	 0.0992176359	-0.367672
H	-0.9656500539	 1.8227418462	-0.112353209	 0.067982
H	 0.0914132197	 3.6589204987	-0.0179094335	 0.094059
H	 1.9100920148	 5.0916788586	-0.6630618476	 0.112528
H	 2.1133352434	 4.8172183204	 1.0474734388	 0.12518
H	 3.6661631669	 3.3987860604	-1.1846694795	 0.114524
H	 4.2712837902	 4.7153627231	-0.1953321611	 0.102192
H	 4.892801147	 3.1566368146	 1.5135778076	 0.089149
H	 3.9677488536	 0.9543127668	 1.7330752207	 0.094142
H	 2.1643819265	 0.0868098491	 0.4408182021	 0.135394
H	 2.8493481863	 0.9189728129	-0.9223644479	 0.129235
64.6169	119.0291	199.2409	239.1411	295.0927	327.5349	348.3788	463.7533	474.8609	545.3865	654.5006	699.6877	720.1437	806.3676	858.9978	875.8716	934.1479	947.1087	970.2033	994.3159	1025.918	1039.3344	1066.8403	1092.6125	1154.185	1200.1419	1223.658	1246.6938	1278.165	1337.1298	1360.5915	1381.6439	1401.0342	1417.8841	1438.605	1460.2063	1475.9877	1491.3521	1706.4881	1727.1361	1790.1647	2871.8623	2986.7446	2997.4819	3012.2523	3029.448	3078.3691	3095.9557	3109.2385	3148.7754	3172.4652
O=CC1=CCCC=CC1	O=CC1=CCCC=CC1	
InChI=1S/C8H10O/c9-7-8-5-3-1-2-4-6-8/h1,3,6-7H,2,4-5H2	InChI=1S/C8H10O/c9-7-8-5-3-1-2-4-6-8/h1,3,6-7H,2,4-5H2
