16
gdb 19704	5.69568	1.83024	1.66188	1.3564	68.27	-0.2175	0.0084	0.2259	790.2632	0.132032	-346.539877	-346.533848	-346.532904	-346.56956	25.127	
O	-0.0296888499	 1.4491130244	-0.0755621923	-0.442592
C	 0.0249071519	 0.0428492118	 0.0029617394	 0.124065
C	 0.0149737215	-0.6334484965	 1.3950413441	-0.094735
C	-1.4910522564	-0.2009950339	 1.5895684847	-0.051911
C	-2.1831672402	-1.3440240507	 2.3147074479	-0.112635
C	-1.6488618125	-2.4386939386	 1.7706493351	-0.105273
C	-0.6627471342	-1.8965642459	 0.7467112041	-0.069138
C	-1.3450505258	-0.6440518548	 0.0801990116	-0.063312
H	 0.8591463343	 1.7924075392	 0.0570969029	 0.282462
H	 0.7316196212	-0.3738456305	-0.7280452198	 0.059257
H	 0.797648241	-0.6365241889	 2.1594530361	 0.063646
H	-1.7274716217	 0.8338439385	 1.8232980871	 0.076807
H	-2.9335033149	-1.2514076537	 3.0871765126	 0.100707
H	-1.8406509923	-3.4822485588	 1.976699472	 0.102075
H	-0.070509089	-2.5808705882	 0.1375826609	 0.059532
H	-2.133584033	-0.6551908535	-0.6763517163	 0.071046
227.1907	258.5195	296.0735	432.7368	521.1691	530.0339	677.0509	716.4735	776.4136	780.5503	807.9615	868.2956	908.7641	922.1026	924.2711	930.1408	953.4479	990.1466	1025.3016	1082.367	1109.1379	1115.3371	1140.6441	1145.8439	1172.634	1187.4735	1204.4271	1248.2718	1264.0245	1301.4061	1316.1415	1333.3424	1434.0863	1634.9989	3004.5779	3070.7817	3086.4863	3109.4813	3157.1223	3220.1844	3247.5305	3822.3402
OC1C2C3C=CC2C13	O[C@H]1[C@H]2[C@@H]3C=C[C@H]2[C@H]13	
InChI=1S/C7H8O/c8-7-5-3-1-2-4(5)6(3)7/h1-8H	InChI=1S/C7H8O/c8-7-5-3-1-2-4(5)6(3)7/h1-8H/t3-,4+,5-,6+,7-
