25
gdb 59018	3.04399	0.91784	0.8571	0.1745	95.57	-0.2237	0.0349	0.2586	1558.887	0.22864	-352.388598	-352.378361	-352.377417	-352.42379	38.89	
C	 0.0330033473	 1.5594137711	-0.0335368844	-0.385886
C	 0.0045369051	 0.0210188238	 0.048407358	-0.078326
C	 0.7743530289	-0.4713709455	 1.2883013028	-0.387474
C	-1.4042702505	-0.5134605242	 0.017694958	 0.36555
C	-1.9345687459	-1.2923834945	-0.9289852096	-0.200411
C	-3.3607105764	-1.6844285907	-0.6329727914	-0.259455
C	-3.7649329963	-0.7045102564	 0.5009090688	 0.050596
C	-4.7770334748	-1.2635217839	 1.4988654824	-0.403768
C	-2.4152442508	-0.2647093341	 1.1252457385	-0.3207
H	 1.0647918409	 1.9244923214	-0.0739256089	 0.108845
H	-0.4906160512	 1.9167734474	-0.9252891037	 0.114626
H	-0.4433584318	 2.0142193326	 0.8417020395	 0.114511
H	 0.5182347425	-0.3675825778	-0.8406682635	 0.071725
H	 0.3186893091	-0.0985973862	 2.2121962351	 0.115798
H	 0.7880302024	-1.5645276078	 1.3376510734	 0.114433
H	 1.8107364629	-0.1183395919	 1.2651506161	 0.109062
H	-1.3971502733	-1.6469620204	-1.8033580314	 0.078324
H	-4.0233175732	-1.6104695919	-1.5034892525	 0.095954
H	-3.4171956109	-2.7308785348	-0.2943848373	 0.096277
H	-4.2013380427	 0.1805045854	 0.02057352	 0.073879
H	-4.3799178096	-2.1519476594	 2.0039424691	 0.111152
H	-5.0274315283	-0.5269757369	 2.2702126234	 0.109797
H	-5.7094254558	-1.5530120813	 1.0019467598	 0.110509
H	-2.1720341489	-0.8746968075	 2.0087643365	 0.098354
H	-2.4398806687	 0.7747604736	 1.4721790013	 0.09663
55.4511	79.6144	159.7138	173.3878	230.8246	250.9936	256.649	303.1523	319.5516	340.5013	421.6604	470.4979	529.8458	569.4369	638.9426	830.6942	840.7935	846.4304	897.6629	910.6531	926.6748	939.0468	945.9446	963.4969	1001.2901	1040.0456	1065.5642	1101.2691	1120.521	1148.6107	1155.1586	1176.1731	1222.874	1238.081	1271.3207	1302.0717	1329.1189	1343.7974	1345.4829	1368.0974	1377.5757	1392.128	1411.2357	1414.8668	1484.1076	1488.1527	1490.4268	1493.8786	1498.7877	1501.069	1501.4473	1512.1832	1711.5014	2984.0144	2989.8015	3015.4849	3016.0127	3023.9391	3027.8939	3032.315	3046.0422	3053.2832	3090.8177	3092.6251	3094.1498	3100.6257	3104.5187	3107.7016	3173.8543
CC(C)C1=CCC(C)C1	CC(C)C1=CC[C@@H](C)C1	
InChI=1S/C9H16/c1-7(2)9-5-4-8(3)6-9/h5,7-8H,4,6H2,1-3H3	InChI=1S/C9H16/c1-7(2)9-5-4-8(3)6-9/h5,7-8H,4,6H2,1-3H3/t8-/m1/s1
