20
gdb 22917	2.02424	1.61163	1.04278	1.0893	77.67	-0.2475	0.0019	0.2494	1205.6917	0.169848	-440.25768	-440.24824	-440.247296	-440.291717	35.269	
C	-0.1988654737	 1.5738495668	 0.1062252977	-0.403132
C	 0.1205209247	 0.082254404	 0.0287207919	-0.078299
C	 1.1357279003	-0.3287511294	-1.0533182762	-0.102513
O	 1.7091832724	-1.5484399054	-0.5985227154	-0.267092
C	 1.8772313969	-1.4581491465	 0.8186850317	 0.036725
C	 3.287305674	-0.9863485961	 1.1949267442	-0.399378
C	 0.7812272903	-0.504586741	 1.261005869	 0.365638
N	 0.3998852188	-0.2086249427	 2.4358721556	-0.229982
O	 1.1334363448	-0.913464639	 3.412128064	-0.393785
H	 0.7116970007	 2.1612865537	 0.2628251854	 0.118161
H	-0.6743520959	 1.9199403739	-0.8171535374	 0.113971
H	-0.8755426404	 1.7778968225	 0.9392949672	 0.138554
H	-0.8076559645	-0.4786222636	-0.1464881297	 0.10464
H	 0.6832568858	-0.5160969899	-2.0301448041	 0.111975
H	 1.903333901	 0.4534343671	-1.1742640128	 0.090936
H	 1.7078369349	-2.4578263797	 1.23411914	 0.107795
H	 3.4882478969	 0.0146160415	 0.8012859284	 0.113575
H	 3.3958070291	-0.9588855262	 2.2807460615	 0.141298
H	 4.0242108486	-1.6758173738	 0.7742522311	 0.123573
H	 0.7411697154	-0.5933009361	 4.2311481278	 0.307342
65.248	174.5054	187.2526	193.7158	217.4681	220.0193	274.8132	297.4125	376.9776	426.3287	449.2092	534.9607	578.2547	647.1305	670.7668	779.12	878.0162	902.172	962.6299	970.0749	979.8162	1026.9908	1080.9312	1093.4121	1128.5476	1133.1209	1160.5907	1212.4288	1241.6799	1300.0441	1322.6226	1328.0944	1355.2135	1380.4289	1396.5775	1403.0987	1416.953	1489.4078	1492.5386	1495.6321	1498.8167	1520.3552	1761.6515	2967.5027	3013.9659	3038.6685	3046.7257	3050.0614	3096.7139	3105.2441	3118.54	3125.2715	3144.925	3821.8874
CC1COC(C)C1=NO	C[C@H]1CO[C@@H](C)C1=NO	
InChI=1S/C6H11NO2/c1-4-3-9-5(2)6(4)7-8/h4-5,8H,3H2,1-2H3	InChI=1S/C6H11NO2/c1-4-3-9-5(2)6(4)7-8/h4-5,8H,3H2,1-2H3/t4-,5-/m0/s1
