18
gdb 100624	2.07179	1.32131	0.85244	3.8016	78.48	-0.2699	0.0139	0.2838	1344.2523	0.143799	-401.913663	-401.903172	-401.902227	-401.94981	36.6	
C	-0.1069008186	 1.3486223705	-0.0662698548	-0.242356
O	 0.0319868514	-0.0545141873	 0.0034920941	-0.241162
C	 0.7059546817	-0.5253283854	 1.1522373548	 0.130507
C	-0.2432569796	-0.6985670827	 2.3367402653	-0.419968
C	 1.3454158753	-1.8753184171	 0.6990072685	-0.336925
C	 2.3111568001	-1.6836896446	-0.3830569473	 0.334183
C	 3.1148108071	-1.5230260647	-1.2593219224	-0.417045
C	 1.9711994205	-2.5786856197	 1.8287087289	 0.287818
N	 2.4529756386	-3.1207885946	 2.7275956085	-0.328536
H	 0.871577563	 1.8505480676	-0.0495078412	 0.116408
H	-0.6026832454	 1.5707289121	-1.0137431139	 0.136206
H	-0.7206096801	 1.7509107299	 0.7523570087	 0.111754
H	 1.5250836409	 0.158552673	 1.4196436396	 0.093698
H	 0.2860066347	-1.0641233479	 3.2201941672	 0.150147
H	-0.7042306234	 0.259257709	 2.5920750674	 0.12563
H	-1.041409768	-1.4040144941	 2.084933615	 0.129631
H	 0.5164670843	-2.4984262311	 0.3359290589	 0.1631
H	 3.8223783676	-1.3846016229	-2.0393528971	 0.206911
53.2433	58.6521	127.4418	138.3104	171.3688	192.1765	225.3306	298.5159	324.022	364.2532	393.6716	463.3387	499.2965	572.5332	582.4212	646.6593	659.8476	852.5458	874.428	970.6129	1014.677	1081.0913	1110.3081	1118.0186	1157.8856	1181.589	1216.6743	1262.6527	1306.0753	1359.6706	1378.2178	1409.6929	1479.4781	1484.5107	1492.438	1498.0917	1509.098	2250.7174	2364.8369	2986.6567	2999.564	3027.3647	3038.7909	3047.0431	3119.0453	3122.9567	3131.0895	3503.7401
COC(C)C(C#C)C#N	CO[C@@H](C)[C@@H](C#C)C#N	
InChI=1S/C7H9NO/c1-4-7(5-8)6(2)9-3/h1,6-7H,2-3H3	InChI=1S/C7H9NO/c1-4-7(5-8)6(2)9-3/h1,6-7H,2-3H3/t6-,7-/m0/s1
