18
gdb 43388	2.22528	2.08657	1.22378	5.3449	79.06	-0.2095	-0.0273	0.1822	1017.3629	0.150556	-401.975531	-401.968045	-401.967101	-402.007538	29.471	
O	-0.0455934387	-0.0882504203	 0.2007163073	-0.371578
C	-0.088190506	 1.1282064876	 0.1057285617	 0.366599
C	-1.3135075851	 1.8894528509	-0.0354430125	-0.242344
C	-1.3146473259	 3.2485178919	-0.0885683291	 0.034008
N	-0.2066195097	 4.0248029214	-0.0001752152	-0.302437
C	 1.0644404029	 3.4471907285	 0.3751000065	 0.02713
C	 1.3868445097	 3.1650733457	 1.8739450553	-0.246462
C	 2.0100170265	 1.8106454508	 1.4298266819	-0.215054
C	 1.2262850094	 1.9270989563	 0.0933118628	-0.1453
H	-2.2448520059	 1.3441813162	-0.1172943495	 0.095359
H	-2.2429416855	 3.7967894912	-0.2253743543	 0.121676
H	-0.3206118848	 5.0223923898	 0.0584012043	 0.250184
H	 1.8657189429	 4.0286265699	-0.0903106491	 0.089596
H	 2.0238791801	 3.8844790503	 2.3934515836	 0.09688
H	 0.4704465287	 3.0172694357	 2.4517497797	 0.118253
H	 3.0905153626	 1.880159609	 1.2807245403	 0.102155
H	 1.7918449747	 0.9284047653	 2.0324923015	 0.125717
H	 1.764224464	 1.6469043497	-0.8170367351	 0.095616
89.8039	132.1531	246.1403	280.817	373.075	449.3069	477.4896	504.2134	550.9632	639.1788	688.2539	755.1117	771.2461	822.1964	866.957	916.8309	940.3776	959.6076	978.7082	1004.7142	1034.9461	1080.8803	1098.6697	1133.3111	1181.6056	1221.1416	1236.3409	1237.6921	1258.2864	1260.9221	1294.3394	1327.7772	1380.8022	1424.7584	1481.076	1501.1946	1535.1623	1656.7335	1744.9514	3055.4821	3062.5364	3065.0545	3075.2215	3116.5608	3135.1083	3168.8182	3217.4142	3652.5527
O=C1C=CNC2CCC12	O=C1C=CN[C@H]2CC[C@@H]12	
InChI=1S/C7H9NO/c9-7-3-4-8-6-2-1-5(6)7/h3-6,8H,1-2H2	InChI=1S/C7H9NO/c9-7-3-4-8-6-2-1-5(6)7/h3-6,8H,1-2H2/t5-,6+/m1/s1
