15
gdb 98130	4.70628	0.86208	0.73199	3.4678	66.95	-0.2541	-0.0672	0.1869	1469.5535	0.111894	-491.166308	-491.156911	-491.155966	-491.201616	31.451	
C	-0.0476957143	 1.5002499301	 0.0325317784	-0.336998
N	-0.0916051876	 0.0548366609	 0.1130746037	-0.305013
C	-1.2117521345	-0.6632017692	-0.052972181	 0.338997
O	-2.3338996591	-0.2369988708	-0.289535008	-0.399673
C	-0.9442351545	-2.1814759795	 0.0902964436	 0.358513
O	 0.1534642638	-2.6281377584	 0.3235823914	-0.331641
N	-2.1178331011	-2.8822057286	-0.0868436859	-0.34963
C	-2.3152100075	-4.2598114159	-0.0395404007	 0.167787
O	-1.4708455166	-5.0853152264	 0.1691149305	-0.250053
H	 0.6220154794	 1.828020562	-0.7692038318	 0.1406
H	-1.0579186343	 1.8537258214	-0.1778862383	 0.171522
H	 0.2958878189	 1.9351943035	 0.9767231699	 0.140596
H	 0.7418789251	-0.485572844	 0.3025250769	 0.276063
H	-2.9106298021	-2.274508813	-0.2726747985	 0.280897
H	-3.3801695256	-4.501786782	-0.2242268902	 0.098031
58.0714	88.9311	106.6758	134.6831	154.9505	226.599	232.2516	300.9526	364.6889	517.1727	517.8321	609.7745	665.7503	778.5727	832.7247	833.7856	942.3093	1004.6107	1032.808	1129.1208	1152.7476	1181.6967	1194.734	1264.5472	1439.9073	1446.2577	1493.3013	1496.272	1524.6443	1584.7317	1783.5955	1796.7934	1867.3463	2944.8011	3037.0609	3093.8031	3152.7565	3532.1941	3596.2841
CNC(=O)C(=O)NC=O	CNC(=O)C(=O)NC=O	
InChI=1S/C4H6N2O3/c1-5-3(8)4(9)6-2-7/h2H,1H3,(H,5,8)(H,6,7,9)	InChI=1S/C4H6N2O3/c1-5-3(8)4(9)6-2-7/h2H,1H3,(H,5,8)(H,6,7,9)
