21
gdb 115394	3.11831	1.12467	1.02072	2.2855	75.76	-0.2418	0.078	0.3197	1292.5475	0.181851	-461.357167	-461.347905	-461.346961	-461.391452	34.25	
C	-0.0289696457	 1.4056051318	-0.0816806544	-0.236738
O	-0.0239547982	 0.027471154	 0.2068652361	-0.238615
C	-1.2757660875	-0.6141212998	 0.0684385224	 0.124149
C	-1.7011302891	-0.8177248937	-1.3941531961	-0.114032
O	-0.8707492761	-1.7603151019	-2.0465918501	-0.245126
C	-0.8513570033	-2.9996870966	-1.3736156154	 0.232812
C	 0.0600078361	-3.9387110004	-2.1317719066	-0.408913
O	-0.3623698944	-2.8713533159	-0.0598641585	-0.24589
C	-1.1535245367	-1.992696045	 0.7211845358	-0.104693
H	 0.9610840351	 1.7889756714	 0.1767133529	 0.131462
H	-0.2137231398	 1.6197893245	-1.1443424869	 0.109923
H	-0.7838038266	 1.9433273994	 0.5147070656	 0.100445
H	-2.0595805233	-0.0365463101	 0.5897645748	 0.060315
H	-2.7538716837	-1.1506941882	-1.4088582171	 0.085314
H	-1.6368596518	 0.1085805316	-1.9701717258	 0.11086
H	-1.8897602954	-3.3895604024	-1.3284686204	 0.046946
H	 1.0698777577	-3.5224899589	-2.1545090824	 0.139274
H	 0.0859752853	-4.9123380898	-1.6375414157	 0.124876
H	-0.2996317027	-4.0619255134	-3.1556734945	 0.123918
H	-0.662888634	-1.9047469765	 1.6928392336	 0.119523
H	-2.1639605159	-2.4110815502	 0.8667599727	 0.084189
58.8495	100.2675	175.2407	202.2077	213.8915	248.1098	312.473	319.4	367.5103	429.9256	530.2139	546.4189	589.4616	784.8921	829.0104	872.3617	883.8859	903.4392	949.6953	1007.339	1069.3488	1097.3742	1109.2401	1132.9789	1145.1658	1178.1236	1182.1146	1191.4185	1226.9227	1269.7665	1306.0456	1335.7192	1376.4358	1378.2958	1391.32	1412.2677	1417.0123	1432.9005	1476.6905	1479.1084	1480.4901	1486.3785	1491.9006	1502.1099	1509.4467	2884.1576	2945.3156	2956.2826	2970.3943	2976.5344	3023.9769	3059.2586	3096.7601	3109.2236	3114.0384	3141.9535	3142.3401
COC1COC(C)OC1	CO[C@H]1CO[C@@H](C)OC1	
InChI=1S/C6H12O3/c1-5-8-3-6(7-2)4-9-5/h5-6H,3-4H2,1-2H3	InChI=1S/C6H12O3/c1-5-8-3-6(7-2)4-9-5/h5-6H,3-4H2,1-2H3/t5-,6+
