12
gdb 129080	3.68793	1.25006	0.93361	3.359	75.1	-0.2683	-0.0911	0.1772	1131.4936	0.078371	-431.644112	-431.637017	-431.636073	-431.676032	25.985	
N	-0.0325864084	 1.3393454031	-0.1327708331	-0.509136
C	-0.0174962455	 0.0649446335	 0.0149730327	 0.285543
C	 1.1836755452	-0.7740856889	 0.1498115794	-0.016609
N	 1.2336150784	-2.047776336	 0.2985730221	-0.045964
O	 0.0271698493	-2.7399780485	 0.3405086504	-0.2765
C	-1.1438007579	-2.0521804521	 0.2240978976	 0.30782
C	-1.2352088434	-0.7185278644	 0.0670996925	-0.24367
C	-2.2766569682	-2.9217054067	 0.2888553011	 0.264597
N	-3.2023048742	-3.6130576742	 0.3395590716	-0.302589
H	 0.9178533642	 1.7168009462	-0.1464115689	 0.225781
H	 2.1654199039	-0.3045917642	 0.1265384524	 0.150925
H	-2.1990043234	-0.2352171177	-0.0191484979	 0.159802
123.8892	136.6565	153.5847	386.5165	404.5214	413.6095	472.4351	517.9236	563.3637	665.911	717.6437	721.4413	859.0461	912.8048	917.3629	929.8732	961.2827	991.8252	1149.9731	1167.2873	1291.6248	1334.7762	1417.8223	1632.1751	1652.3157	1704.8448	2357.1587	3161.5335	3235.7773	3446.0579
N=C1C=NOC(=C1)C#N	[NH]C1=C[C](ON=C1)C#N	
InChI=1S/C5H3N3O/c6-2-5-1-4(7)3-8-9-5/h1,3,7H	InChI=1S/C5H3N3O/c6-2-5-1-4(7)3-8-9-5/h1,3,7H
