16
gdb 36624	4.01394	1.05459	0.93396	2.5964	68.72	-0.2477	0.0021	0.2497	1222.4629	0.123073	-437.824917	-437.816685	-437.815741	-437.85894	29.826	
N	 0.2575897048	-0.0358186807	-1.5242555593	-0.305384
C	 0.0893200666	 0.5845847119	-0.5644570013	 0.271598
C	-0.1320402516	 1.3603174097	 0.6699149907	-0.222227
O	 1.0210925822	 2.0526964016	 1.1107192706	-0.263116
C	 1.3204695304	 3.1947961119	 0.3888194356	 0.333717
C	 1.9769182085	 3.2019926404	-0.9767441187	-0.345682
C	 2.6454483127	 3.8723604731	 0.193914555	 0.017533
O	 2.0918616144	 5.1718532258	 0.4200736592	-0.280762
C	 0.7948180449	 4.591847782	 0.7270684578	-0.138936
H	-0.9799011005	 2.0396426543	 0.5099800296	 0.14939
H	-0.4026638559	 0.6671414093	 1.4714587167	 0.165032
H	 2.4116466289	 2.2481457157	-1.2566281372	 0.143578
H	 1.5793096645	 3.7972537415	-1.7940092688	 0.123634
H	 3.6450953324	 3.6647616435	 0.5546580751	 0.124135
H	-0.0082238329	 5.0142831946	 0.112745282	 0.109725
H	 0.5618828508	 4.7050263955	 1.7919289229	 0.117765
31.694	81.331	184.477	204.3255	305.6985	364.4564	379.5877	396.6933	447.8075	616.6705	648.8027	741.9543	871.5485	897.0804	913.281	932.1087	986.2507	994.8761	1010.3138	1039.7445	1050.5328	1078.2573	1085.5088	1113.2036	1159.8405	1222.2327	1271.8494	1301.3407	1303.178	1376.729	1412.7286	1468.1198	1482.1828	1512.1357	2360.1324	3023.7841	3028.2121	3082.7138	3098.056	3122.0847	3198.1146	3222.9917
N#CCOC12CC1OC2	N#CCO[C@]12C[C@H]1OC2	
InChI=1S/C6H7NO2/c7-1-2-9-6-3-5(6)8-4-6/h5H,2-4H2	InChI=1S/C6H7NO2/c7-1-2-9-6-3-5(6)8-4-6/h5H,2-4H2/t5-,6+/m1/s1
