20
gdb 126592	5.3691	0.65494	0.62759	2.8747	81.61	-0.2602	-0.0051	0.2551	1826.1366	0.171056	-403.157207	-403.148059	-403.147115	-403.192609	32.874	
C	 0.2186304813	 1.5122624595	 0.2559481296	-0.382995
C	-0.076177465	 0.0411693269	-0.0485586385	-0.161831
C	 0.7917172946	-0.5220041961	-1.1784154572	-0.160625
C	 0.4906032085	-2.0007886516	-1.4824408951	-0.318864
C	 1.3376864093	-2.5566133491	-2.5863680565	 0.387549
N	 0.7940790972	-2.881127831	-3.7369733649	-0.20149
O	 1.8370379482	-3.340358598	-4.5405015166	-0.163903
C	 2.9779027806	-3.2766069738	-3.8415495238	 0.083453
C	 2.7472502833	-2.7913537595	-2.5975268925	-0.329048
H	 1.2620266016	 1.6530909917	 0.5594956013	 0.113604
H	 0.0435195992	 2.1412136708	-0.6237974371	 0.117174
H	-0.4164047705	 1.8870388115	 1.064583557	 0.113674
H	 0.0746096511	-0.5598299207	 0.8581547205	 0.094815
H	-1.1348623923	-0.0739720883	-0.3154821538	 0.1002
H	 0.6393354213	 0.0673070008	-2.0912694438	 0.109531
H	 1.8521131579	-0.4098552525	-0.9159343543	 0.095558
H	 0.6460365391	-2.5969562575	-0.5742180026	 0.110771
H	-0.5599380099	-2.1167659118	-1.766669129	 0.126134
H	 3.8648431227	-3.6113841241	-4.3573835243	 0.148798
H	 3.4587223617	-2.6269937671	-1.8055004885	 0.117496
38.6835	79.4751	90.6827	122.6315	242.328	249.5558	318.8151	332.9505	434.7417	614.9667	681.1294	734.4962	750.4842	794.7104	800.821	870.5866	903.2779	909.6042	933.9834	943.5671	995.341	1019.7714	1062.6656	1079.3193	1116.3969	1123.8297	1161.178	1237.4975	1277.8626	1296.1372	1313.9925	1332.3484	1363.0551	1397.0174	1414.0624	1449.2291	1476.1758	1483.8527	1487.248	1498.7541	1500.5395	1512.0441	1611.086	3012.374	3019.1197	3028.9984	3030.9324	3039.8198	3061.9202	3091.305	3098.1644	3103.4236	3258.6851	3283.4479
CCCCC1=NOC=C1	CCCCc1nocc1	
InChI=1S/C7H11NO/c1-2-3-4-7-5-6-9-8-7/h5-6H,2-4H2,1H3	InChI=1S/C7H11NO/c1-2-3-4-7-5-6-9-8-7/h5-6H,2-4H2,1H3
