14
gdb 18867	4.06645	2.42779	1.9368	2.1845	61.89	-0.2537	-0.0527	0.2011	697.3605	0.10881	-378.617991	-378.612291	-378.611347	-378.647519	23.087	
O	 0.167130026	 1.4047011417	-0.2328796734	-0.404982
C	 0.0318620073	 0.0675329877	 0.0133206381	 0.136448
C	-1.3477560806	-0.7397895608	-0.0799093835	-0.131029
C	-1.7785939371	-1.3801026651	-1.4080133009	-0.046316
C	-1.183741518	-0.9742513564	-2.7614569746	-0.188314
N	 0.1266924634	-0.4245040955	-2.3227209162	-0.228
C	 0.2867098394	-0.8898870927	-1.1432790343	 0.093467
N	-0.6480590676	-1.9342991962	-0.6509050252	-0.126892
H	 0.0721955602	 1.5049691346	-1.1944591987	 0.294534
H	 0.4610602029	-0.168000341	 0.9901089156	 0.128351
H	-1.9757330819	-0.8640971946	 0.8011297897	 0.114512
H	-2.7123484051	-1.9372447341	-1.3693685263	 0.107563
H	-1.1180033298	-1.851327745	-3.4199930132	 0.126388
H	-1.720969369	-0.1858593226	-3.2967700071	 0.12427
193.6396	280.4495	363.5478	521.2643	564.6407	586.0399	649.5582	697.4467	769.4949	782.072	828.2467	863.4887	896.7531	951.455	978.1809	1005.7181	1025.1065	1067.5185	1098.4871	1129.4264	1148.6276	1196.0984	1209.4575	1266.5438	1310.8046	1319.1461	1349.8687	1447.5883	1490.6247	1616.0391	3016.1949	3084.5039	3098.642	3124.3576	3148.5826	3682.6375
OC1C2C3CN=C1N23	O[C@H]1[C@H]2[C@H]3C[N][C]1N23	
InChI=1S/C5H6N2O/c8-4-3-2-1-6-5(4)7(2)3/h2-4,8H,1H2	InChI=1S/C5H6N2O/c8-4-3-2-1-6-5(4)7(2)3/h2-4,8H,1H2/t2-,3-,4+,7?/m1/s1
