18
gdb 85155	2.08357	1.74782	1.02187	0.6596	76.12	-0.2346	-0.0035	0.2312	1164.1681	0.148184	-435.316776	-435.307809	-435.306865	-435.350414	33.581	
C	-0.056520036	 1.5990081509	 0.040055261	-0.405839
C	 0.0279684166	 0.082937075	 0.0269584253	 0.068601
C	 0.731647525	-0.5973812463	-1.1917842142	-0.402377
C	 1.7432408354	-1.1397342318	-0.1716831826	 0.434132
O	 2.7152227424	-1.857128034	-0.1807635382	-0.3872
N	 1.0999498209	-0.4933259719	 0.8648704845	-0.111281
C	 1.264702751	-0.5175705693	 2.2532399745	 0.406555
N	 2.4470713657	-1.1131647295	 2.6288727467	-0.563985
N	 0.357919371	 0.0254045598	 2.9722482742	-0.552341
H	 0.9085281661	 2.0464945192	-0.2198462854	 0.117036
H	-0.8022445939	 1.9390985994	-0.6857170858	 0.119497
H	-0.3467838169	 1.9475862547	 1.0334058644	 0.159392
H	-0.9406584989	-0.3623855336	 0.2714784579	 0.105427
H	 0.1588360862	-1.3702400885	-1.7072468964	 0.137778
H	 1.159501473	 0.0916727735	-1.9231018217	 0.136516
H	 2.918802737	-1.6765667204	 1.9312361338	 0.278203
H	 2.5091422785	-1.4279561049	 3.5827298465	 0.252004
H	 0.5875846467	-0.0399301125	 3.9623563356	 0.207882
97.263	115.4474	122.2724	187.6419	248.1305	298.0453	390.9555	410.8174	426.3511	451.9125	531.92	573.5542	591.6063	692.6695	722.0993	735.8673	795.0776	839.8978	910.9495	1005.7281	1056.6432	1065.6339	1104.3576	1111.2397	1127.6804	1176.2719	1190.186	1232.5405	1251.9463	1362.5604	1386.4054	1409.3797	1450.5784	1469.8652	1485.4841	1505.1168	1643.7392	1722.1352	1848.2634	3039.1203	3069.4184	3084.1958	3109.4596	3136.5263	3141.7519	3501.0916	3525.9918	3689.5103
CC1CC(=O)N1C(N)=N	C[C@H]1CC(=O)N1C(=N)N	
InChI=1S/C5H9N3O/c1-3-2-4(9)8(3)5(6)7/h3H,2H2,1H3,(H3,6,7)	InChI=1S/C5H9N3O/c1-3-2-4(9)8(3)5(6)7/h3H,2H2,1H3,(H3,6,7)/t3-/m0/s1
