18
gdb 31542	3.2574	1.06309	0.85063	1.4181	77.02	-0.1675	0.0575	0.2251	1363.5469	0.147938	-435.276628	-435.266656	-435.265711	-435.311948	35.744	
C	-0.780926709	 0.8411980637	 0.0154223325	-0.324045
N	 0.5393007642	 0.2118322177	-0.1191988718	-0.386497
C	 1.0014171143	-0.4827735148	 1.0149130823	 0.313499
C	 1.8418741974	-0.1153271481	 2.0521052523	-0.376816
C	 1.9757705961	-1.2536674206	 2.8967540399	 0.28662
O	 2.7100284468	-1.380138576	 4.0470245243	-0.460081
C	 1.2134731517	-2.2767458492	 2.3779216702	 0.160327
N	 0.9574905608	-3.6029690104	 2.7900835065	-0.616394
N	 0.6273555699	-1.779281123	 1.2232988983	-0.285701
H	-0.8384000359	 1.5789148471	 0.8309177219	 0.106899
H	-1.0399878884	 1.33470681	-0.9261219891	 0.116309
H	-1.5325364034	 0.0705306533	 0.2080162258	 0.126796
H	 1.2250948898	 0.9012758798	-0.4006368223	 0.230046
H	 2.2913451979	 0.8576167838	 2.1902761439	 0.075931
H	 3.1162930401	-0.5309379805	 4.2393617358	 0.292649
H	 0.6276225774	-3.6320024376	 3.7498915499	 0.2425
H	 1.7967667388	-4.1744182064	 2.7555981477	 0.241053
H	 0.0748683914	-2.3334510787	 0.5917592819	 0.256904
40.6009	107.0428	125.5104	175.974	186.7594	236.8218	262.6483	287.793	312.4014	381.583	485.4186	524.9201	586.7494	660.7174	673.8389	686.2604	736.353	760.555	800.3268	848.5961	997.7648	1060.7565	1114.8721	1141.5109	1158.472	1194.8537	1214.0566	1240.8015	1283.4565	1354.2159	1411.9221	1449.7712	1487.8615	1498.0576	1505.428	1520.4381	1564.2651	1658.8075	1683.1722	2981.7625	3075.2213	3113.8772	3227.0207	3487.1418	3545.1991	3555.3207	3679.4851	3850.7341
CNC1=CC(O)=C(N)N1	CNc1cc(O)c(N)[nH]1	
InChI=1S/C5H9N3O/c1-7-4-2-3(9)5(6)8-4/h2,7-9H,6H2,1H3	InChI=1S/C5H9N3O/c1-7-4-2-3(9)5(6)8-4/h2,7-9H,6H2,1H3
