21
gdb 36990	5.09941	0.67707	0.66755	2.2704	79.76	-0.2456	0.0726	0.3182	1752.4612	0.181793	-424.17477	-424.16547	-424.164526	-424.2107	33.219	
C	-0.1213723107	 1.4750740322	 0.117191512	-0.080321
O	 0.0491171971	 0.0714056571	 0.2423042944	-0.251669
C	-1.1504952579	-0.6448721857	 0.2108969714	 0.097878
C	-1.7688879613	-0.9754843264	-1.1723440517	-0.094083
O	-1.6894439226	-2.3899497942	-0.9012780922	-0.273132
C	-0.9551086982	-2.1643770909	 0.3205668974	-0.099682
C	 1.2157627969	 2.1464200622	 0.2556721035	 0.011101
C	 2.1243875356	 2.263948799	-0.9401748217	-0.247228
C	 1.4400493719	 3.4902143221	-0.3917348419	-0.273165
H	-0.5657128361	 1.7244702205	-0.8612128559	 0.084846
H	-0.8208051446	 1.8339867393	 0.8915112807	 0.089525
H	-1.8757825621	-0.2281901398	 0.9246332021	 0.073206
H	-2.7991054566	-0.6511648047	-1.3593132233	 0.100282
H	-1.1278202745	-0.6752817043	-2.0123937689	 0.10009
H	 0.0990115044	-2.4570717747	 0.2374228002	 0.111103
H	-1.4134206162	-2.6695503151	 1.1777509274	 0.103553
H	 1.694820511	 1.9799742632	 1.2159538321	 0.091289
H	 3.1917442053	 2.1552907357	-0.7852662872	 0.115186
H	 1.7691671783	 1.8619706896	-1.8832276267	 0.114421
H	 0.6268413108	 3.919376505	-0.9682212888	 0.111802
H	 2.0352195394	 4.22138875	 0.1432931171	 0.115
42.7171	57.1789	81.1441	106.8032	164.8961	264.7714	311.6402	381.7325	446.1263	494.1799	737.9665	774.4948	817.8378	847.9625	871.	888.8427	923.1887	949.2697	990.173	1023.1641	1035.0403	1050.0861	1058.7199	1064.8383	1079.0419	1135.0988	1136.8343	1156.1552	1162.7941	1195.9372	1197.28	1212.5239	1227.495	1277.4234	1283.3752	1300.8938	1343.3866	1370.9942	1407.5766	1457.5126	1470.963	1498.3123	1505.1572	1516.2052	1525.8162	2950.5928	2979.7667	2995.904	3004.9379	3024.0012	3062.507	3074.972	3132.2477	3137.3257	3154.4158	3210.786	3226.0027
C(OC1COC1)C1CC1	C(OC1COC1)C1CC1	
InChI=1S/C7H12O2/c1-2-6(1)3-9-7-4-8-5-7/h6-7H,1-5H2	InChI=1S/C7H12O2/c1-2-6(1)3-9-7-4-8-5-7/h6-7H,1-5H2
