13
gdb 28172	5.44266	1.35316	1.09109	2.5093	65.76	-0.2289	-0.0115	0.2173	1026.8059	0.090852	-452.769527	-452.762769	-452.761824	-452.800956	24.928	
C	-0.0134394632	 1.4287726018	 0.1012588217	-0.4926
C	-0.0187046519	-0.0436243332	-0.0694314277	 0.350741
N	-0.2044483597	-0.7451702998	-1.1446664544	-0.360573
C	-0.0984937357	-2.0545955631	-0.6965435913	 0.223448
C	 0.144681074	-2.0396111202	 0.6251239545	 0.382993
O	 0.2589882773	-3.2734137684	 1.1277457019	-0.210933
C	 0.0587848217	-4.0364966107	-0.0338650654	 0.035744
N	-0.1539193677	-3.3721460434	-1.1247862908	-0.321594
O	 0.2119510056	-0.7960105101	 1.109771158	-0.238489
H	 0.9498210919	 1.7791102795	 0.4862822746	 0.151995
H	-0.1995683369	 1.8903005358	-0.8687627889	 0.165871
H	-0.788747964	 1.7483953776	 0.8052346489	 0.152
H	 0.1051008786	-5.1023628057	 0.114643869	 0.161397
103.941	140.8452	258.4246	286.4929	365.5853	529.0398	579.5698	629.8896	667.2967	756.0352	772.8553	789.4971	804.5653	844.8019	925.2154	1008.3238	1028.9003	1062.3668	1158.4999	1207.5321	1310.0503	1397.015	1413.2244	1471.2216	1476.7191	1513.8152	1522.4711	1619.9547	1635.842	3044.2254	3099.2435	3159.1627	3296.7937
CC1=NC2=C(OC=N2)O1	Cc1nc2c(ocn2)o1	
InChI=1S/C5H4N2O2/c1-3-7-4-5(9-3)8-2-6-4/h2H,1H3	InChI=1S/C5H4N2O2/c1-3-7-4-5(9-3)8-2-6-4/h2H,1H3
