20
gdb 79452	3.18627	1.52721	1.28879	2.2805	77.66	-0.2344	0.0836	0.318	1045.7556	0.173307	-403.089442	-403.082068	-403.081124	-403.120813	30.541	
C	-0.1033229992	 1.5127243643	 0.0004285922	-0.435681
C	 0.0849145331	-0.002923389	 0.0299743209	 0.047455
C	 1.0792407544	-0.6291343021	-0.9808282599	-0.086319
C	 2.423277534	-0.0469626199	-0.5031929574	-0.170992
N	 2.2529171093	-0.8710523519	 0.7398019507	-0.186153
C	 1.4975446271	-1.8929172806	-0.1319047695	-0.043854
C	 0.5476624171	-2.1287179155	 1.0527249879	 0.174706
O	 1.0882676518	-2.9825560757	 2.0283615361	-0.462337
C	 0.8066089214	-0.615936936	 1.2561291829	-0.068672
H	 0.8152896688	 2.0635789641	 0.2175747342	 0.122668
H	-0.4673498313	 1.8419623471	-0.979277682	 0.116123
H	-0.845450135	 1.8162592218	 0.7462645345	 0.119236
H	-0.9028280349	-0.4652461464	-0.0827627623	 0.074462
H	 0.7839981441	-0.6753837641	-2.0306722182	 0.062439
H	 3.2838854295	-0.4388255719	-1.0535763287	 0.10819
H	 2.540886145	 1.0310192368	-0.3693842882	 0.101446
H	 2.077253044	-2.6892385229	-0.6023094676	 0.081191
H	-0.481231634	-2.4497538467	 0.8768532604	 0.081463
H	 1.9943019455	-2.6809491344	 2.1779863537	 0.291128
H	 0.7155695794	-0.1348560271	 2.2300186604	 0.0735
163.4321	215.2739	231.1325	259.7815	352.815	446.0313	485.8771	494.8538	525.9897	655.5301	729.851	806.5425	827.4514	845.286	872.0694	878.6673	940.0369	941.8647	959.1341	1007.1435	1020.4783	1032.1959	1061.0994	1081.8655	1104.6489	1130.0042	1140.2064	1172.0293	1187.5668	1204.7234	1218.8838	1235.164	1258.2825	1268.9933	1294.3417	1306.2798	1322.6902	1399.2122	1411.7567	1450.9179	1492.5966	1497.6221	1522.3996	3029.0954	3035.044	3057.0238	3090.247	3094.3605	3094.979	3106.376	3107.4318	3119.165	3120.4313	3766.0621
CC1C2CN3C2C(O)C13	C[C@H]1[C@H]2CN3[C@H]2[C@@H](O)[C@H]13	
InChI=1S/C7H11NO/c1-3-4-2-8-5(3)7(9)6(4)8/h3-7,9H,2H2,1H3	InChI=1S/C7H11NO/c1-3-4-2-8-5(3)7(9)6(4)8/h3-7,9H,2H2,1H3/t3-,4+,5-,6+,7-/m0/s1
