16
gdb 27881	2.04224	1.82235	0.96915	3.0462	76.18	-0.2254	-0.0093	0.2161	1168.5738	0.126181	-434.160188	-434.152002	-434.151058	-434.192893	31.125	
C	-0.0212757846	 1.477229376	 0.0799654371	-0.468
C	 0.0359313006	-0.0223767652	-0.0094891727	 0.33799
C	-0.0279089545	-0.6882836555	-1.2205152431	-0.262174
C	 0.0349589983	-2.0944002945	-1.1819577569	 0.406524
N	 0.0210182522	-2.8482840401	-2.3202695349	-0.566372
N	 0.1471412017	-2.7644893369	-0.0297745614	-0.365062
C	 0.2030003393	-2.0118018192	 1.0620794546	 0.433775
O	 0.3188483612	-2.690439924	 2.2157280224	-0.396844
N	 0.1541936936	-0.6844028554	 1.1564585043	-0.427086
H	 0.8854804348	 1.8592067285	 0.5598729771	 0.142669
H	-0.1225681996	 1.9402397748	-0.9040345274	 0.118574
H	-0.8651097132	 1.7843279853	 0.7059991119	 0.141714
H	-0.1167303218	-0.1528705483	-2.1578316238	 0.0837
H	-0.3334945849	-2.4429958678	-3.169434429	 0.257394
H	-0.1267997984	-3.8365347878	-2.1906492056	 0.263187
H	 0.3436429753	-2.0172807101	 2.9093876473	 0.300009
85.028	182.2269	207.3098	223.3596	293.1958	340.4848	364.3167	490.8905	531.4062	550.6138	573.6518	574.9755	612.3147	644.3713	733.3061	814.5502	833.1034	974.5188	999.5229	1009.3669	1058.6014	1062.4547	1144.3896	1206.7948	1259.4458	1327.6669	1402.0151	1442.0106	1464.4646	1473.796	1492.1637	1534.631	1606.9583	1634.532	1655.9949	3043.2002	3103.9459	3130.9266	3197.9425	3600.0159	3725.8199	3780.7269
CC1=CC(N)=NC(O)=N1	Cc1cc(N)nc(O)n1	
InChI=1S/C5H7N3O/c1-3-2-4(6)8-5(9)7-3/h2H,1H3,(H3,6,7,8,9)	InChI=1S/C5H7N3O/c1-3-2-4(6)8-5(9)7-3/h2H,1H3,(H3,6,7,8,9)
