15
gdb 49007	3.09581	1.39189	1.12748	2.2122	66.15	-0.2736	-0.0563	0.2172	1055.6479	0.111729	-457.78093	-457.773276	-457.772332	-457.813541	28.073	
O	-0.7172553937	 1.119339055	 0.8725236211	-0.24611
C	 0.1205070992	 0.9046358911	 0.0340523511	 0.085305
C	 1.3617256823	 1.7303831302	-0.1147985228	 0.350514
C	 1.8538078403	 2.6551823559	 1.0142374053	-0.286839
C	 2.0528155413	 3.8109991231	-0.0117505588	-0.234702
C	 1.512707038	 2.8942894935	-1.1556219125	-0.280664
C	 2.5832251109	 1.9873520635	-1.7484590803	 0.447158
O	 3.3392127491	 1.9938051559	-2.6621884199	-0.310755
O	 2.4379925099	 1.004338012	-0.7850917562	-0.289744
H	 0.022308906	 0.0885946029	-0.7133620356	 0.102911
H	 1.059127187	 2.845239592	 1.7374084965	 0.144476
H	 2.7425678782	 2.2909441652	 1.530940558	 0.129842
H	 1.4051595647	 4.6689405692	 0.1711969186	 0.130683
H	 3.0732258706	 4.1681863159	-0.1585586887	 0.133863
H	 0.7296116663	 3.2610224145	-1.8157494659	 0.124063
96.9577	102.3009	183.015	230.3995	273.8516	374.568	440.0874	497.9975	638.09	709.4412	739.2541	753.6995	809.8927	863.2064	909.9485	952.9379	967.3615	984.7862	1035.8583	1091.3811	1128.6727	1134.2606	1183.0686	1216.8274	1232.5689	1254.5053	1282.333	1304.8745	1406.8887	1465.5993	1488.9228	1821.4274	1944.817	2913.0066	3085.2998	3089.3115	3134.6626	3147.4377	3154.0189
O=CC12CCC1C(=O)O2	O=C[C@]12CC[C@H]1C(=O)O2	
InChI=1S/C6H6O3/c7-3-6-2-1-4(6)5(8)9-6/h3-4H,1-2H2	InChI=1S/C6H6O3/c7-3-6-2-1-4(6)5(8)9-6/h3-4H,1-2H2/t4-,6+/m0/s1
