17
gdb 50499	3.60352	0.97526	0.91089	1.8191	74.9	-0.2555	-0.0276	0.2279	1295.9158	0.134732	-421.799926	-421.791222	-421.790278	-421.834481	31.387	
O	 0.3352124958	-0.1063025998	-0.1732290236	-0.247336
C	 0.285463442	 1.0934184633	-0.1093195579	 0.152356
C	 1.458127436	 2.004363861	 0.1692107425	-0.084584
C	 1.6488875288	 3.0576277023	-0.9663271015	-0.112725
O	 1.4653909467	 4.3432745579	-0.3850792678	-0.233468
C	 1.8009327395	 4.2487842585	 0.994563182	-0.083646
C	 1.2112830275	 2.8856915775	 1.4177211243	-0.255426
C	 3.2487563824	 4.3286996062	 1.2236002892	 0.348344
C	 4.4363336813	 4.3808786782	 1.401423473	-0.478466
H	-0.6756257594	 1.6420223249	-0.263542586	 0.077169
H	 2.3506006586	 1.3878091814	 0.2857107366	 0.107531
H	 2.6528326971	 2.960701184	-1.397064415	 0.1204
H	 0.9159379294	 2.9612417296	-1.7743082085	 0.118225
H	 1.3047770335	 5.0858668001	 1.4952811476	 0.119181
H	 0.1379464596	 3.0142344848	 1.5935459145	 0.114353
H	 1.6657347636	 2.4756477596	 2.319922731	 0.132098
H	 5.4850552677	 4.4401915204	 1.5604100696	 0.205993
37.2257	83.787	110.4281	177.2382	271.9081	323.1488	336.8381	402.0929	488.6416	554.6872	639.8144	675.8454	714.1601	755.9368	844.9085	868.2394	937.5875	943.3038	961.3946	1000.3397	1011.9706	1084.1973	1096.0364	1142.8885	1200.0786	1238.3193	1265.6736	1291.422	1306.2828	1332.7051	1364.632	1387.239	1425.6339	1482.7325	1511.0675	1836.781	2232.2216	2839.633	3026.5053	3051.5572	3069.386	3073.8509	3105.1826	3136.1063	3501.0216
O=CC1COC(C1)C#C	O=C[C@H]1CO[C@@H](C1)C#C	
InChI=1S/C7H8O2/c1-2-7-3-6(4-8)5-9-7/h1,4,6-7H,3,5H2	InChI=1S/C7H8O2/c1-2-7-3-6(4-8)5-9-7/h1,4,6-7H,3,5H2/t6-,7+/m0/s1
