23
gdb 96074	2.40503	1.47114	1.07178	1.2313	84.97	-0.2444	0.0818	0.3261	1222.7004	0.206872	-388.299552	-388.290634	-388.28969	-388.332497	35.944	
C	-0.0675811963	 1.5452507845	 0.0392438074	-0.394105
C	 0.0489017899	 0.0164532343	 0.010922459	 0.015244
C	 0.6663416642	-0.4934961097	-1.3029067791	-0.203642
C	 0.8636258745	-2.0120825302	-1.2661643278	-0.201574
C	 1.8844391443	-2.4291362595	-0.1933468099	-0.282051
C	 1.6806995765	-1.7205036987	 1.1491840881	 0.390216
O	 1.5931936679	-2.5715542606	 2.2672845393	-0.473735
C	 2.3008832399	-0.3608803997	 1.3750685821	-0.352264
C	 0.7950222463	-0.5095162392	 1.2302730218	-0.039129
H	 0.9221322554	 2.0135014907	-0.0003313392	 0.113417
H	-0.648907587	 1.9127620541	-0.8133807136	 0.105693
H	-0.5600538829	 1.8885158041	 0.9551872599	 0.109529
H	-0.9685094336	-0.3993440664	 0.0617649038	 0.072207
H	 0.0127930892	-0.2126472013	-2.1366656216	 0.091336
H	 1.628405323	 0.0049168479	-1.4887690843	 0.090295
H	-0.102601095	-2.4872275188	-1.0519550395	 0.099051
H	 1.1855631867	-2.3842082775	-2.2449070288	 0.089215
H	 1.8047812034	-3.5051152358	-0.0097143047	 0.101779
H	 2.9010475799	-2.2447094866	-0.5644761236	 0.092962
H	 2.4699256285	-2.9406815267	 2.422397377	 0.27587
H	 2.6810528893	-0.1468998013	 2.3680235529	 0.105579
H	 2.8675219731	 0.0877720083	 0.5645057224	 0.104
H	 0.2503683629	-0.4231293819	 2.1664623885	 0.090107
99.5879	160.3314	228.7748	247.1705	271.4862	302.4426	359.4691	380.9675	410.0205	425.3044	466.9516	542.5705	583.9074	713.0367	749.7534	846.1982	858.0225	895.8918	908.2778	926.5964	951.4766	978.1465	996.2407	1006.5167	1046.6418	1064.058	1076.211	1115.9481	1130.9204	1157.0694	1187.8117	1226.2103	1241.3383	1269.2597	1298.2992	1332.9949	1337.9506	1365.1758	1370.0435	1381.846	1386.6717	1405.8855	1416.9229	1474.9248	1488.8486	1491.4293	1496.1334	1499.5755	1502.8358	2988.0012	3010.4587	3015.9263	3021.9338	3026.7115	3060.2859	3067.1105	3080.1044	3095.3852	3096.8428	3122.1152	3146.7134	3211.9847	3788.5753
CC1CCCC2(O)CC12	C[C@H]1CCC[C@@]2(O)C[C@@H]12	
InChI=1S/C8H14O/c1-6-3-2-4-8(9)5-7(6)8/h6-7,9H,2-5H2,1H3	InChI=1S/C8H14O/c1-6-3-2-4-8(9)5-7(6)8/h6-7,9H,2-5H2,1H3/t6-,7-,8+/m0/s1
