19
gdb 38874	2.74743	2.13996	1.92271	2.1734	72.27	-0.2312	0.0846	0.3158	837.1867	0.164671	-423.024307	-423.018546	-423.017602	-423.054011	25.891	
C	-0.0196026073	 1.5965224111	 0.0172933194	-0.213994
C	 1.5254725673	 1.6716223447	 0.0162487293	-0.064989
C	 1.7814680954	 1.0209367984	 1.3916426949	-0.233457
C	 1.0927131252	-0.3334745132	 1.0975990479	 0.082978
O	 2.0643677559	-1.2075651266	 0.5301443885	-0.259463
C	 2.7978492682	-0.5291318898	-0.4964191023	-0.082793
C	 1.8833116267	 0.5628100118	-1.0620653752	 0.053486
O	 0.6437430922	-0.1404856727	-1.2745517302	-0.257607
C	 0.0122285557	 0.058397883	-0.0076343302	 0.07043
H	-0.4582363442	 2.0533210954	 0.9077276632	 0.093614
H	-0.5083279726	 1.9831946963	-0.8783689963	 0.105675
H	 1.9880074619	 2.64190008	-0.1645778795	 0.066882
H	 2.8283458098	 0.8743191779	 1.6634264053	 0.107538
H	 1.3001187314	 1.5880542702	 2.1929174351	 0.096057
H	 0.6707540225	-0.8495034095	 1.9604630284	 0.079475
H	 3.7483182677	-0.1280653145	-0.1135658019	 0.08536
H	 3.0231979241	-1.2690207749	-1.2701000608	 0.112793
H	 2.2399650522	 0.969121516	-2.0107911976	 0.080927
H	-0.924889382	-0.4966233336	 0.0179107018	 0.077088
320.219	335.6246	413.0872	498.3756	530.0034	558.7845	629.4912	667.0231	770.1404	785.5347	849.8616	869.6396	881.2965	901.4031	915.0137	942.7225	953.9089	969.0722	983.6823	1020.3493	1030.4486	1065.5928	1083.2837	1094.0605	1132.0628	1166.0548	1193.0209	1202.2283	1232.6124	1265.2428	1279.8782	1293.5647	1301.1458	1313.2186	1331.3482	1344.4459	1353.2243	1396.0465	1485.8592	1506.0484	1523.4393	2987.8896	3062.356	3072.1327	3078.1387	3091.1813	3108.5184	3114.9365	3117.9906	3129.9908	3131.1303
C1C2CC3OCC2OC13	C1[C@H]2C[C@@H]3OC[C@H]2O[C@H]13	
InChI=1S/C7H10O2/c1-4-2-6-5(1)8-3-7(4)9-6/h4-7H,1-3H2	InChI=1S/C7H10O2/c1-4-2-6-5(1)8-3-7(4)9-6/h4-7H,1-3H2/t4-,5+,6-,7-/m1/s1
