21
gdb 56578	2.84381	0.98895	0.95303	3.8763	83.54	-0.2498	0.0398	0.2897	1369.158	0.181424	-383.26189	-383.251954	-383.25101	-383.296751	36.435	
C	-0.1981618364	 1.4874686726	-0.0188821438	-0.39387
C	 0.0813348426	-0.0250840141	 0.0769457692	-0.145453
C	 0.6690894504	-0.5318251981	-1.1662529915	 0.269327
N	 1.1456296726	-0.9292222595	-2.1417872592	-0.33204
C	 0.9667379834	-0.433505473	 1.2915297307	 0.047293
C	 2.3334087453	 0.2503172137	 1.3053929778	-0.406678
N	 0.2296881152	-0.0982735564	 2.5086997412	-0.062917
C	-0.7163989832	-1.0975108522	 3.0007016681	-0.229984
C	 0.5728375284	-0.8580568203	 3.7052219428	-0.227454
H	 0.7077021696	 2.0452899731	-0.2666111905	 0.136007
H	-0.9403310438	 1.6896138372	-0.7948152152	 0.130653
H	-0.5770892841	 1.8399746588	 0.9419973919	 0.145548
H	-0.8781456248	-0.5423369812	 0.2046627592	 0.125251
H	 1.1242793537	-1.5249942715	 1.2170481161	 0.073919
H	 2.9403869777	-0.139166788	 2.1275265454	 0.120969
H	 2.8696702053	 0.0649418625	 0.3706150543	 0.14082
H	 2.2308004506	 1.3290110049	 1.4481865212	 0.131169
H	-1.6481032179	-0.7109587167	 3.4028020582	 0.121973
H	-0.8094478489	-2.0309780972	 2.4470737923	 0.115815
H	 1.3331405843	-1.6326311663	 3.616668145	 0.116682
H	 0.6026119201	-0.2942829881	 4.6328354165	 0.122969
67.0795	103.4121	134.6354	192.669	211.6364	226.5129	250.2764	271.2716	326.339	347.0842	456.9273	489.378	566.7029	620.4748	758.5578	798.6045	836.818	888.6207	914.4777	960.8457	1005.6286	1015.6865	1032.391	1088.2927	1105.4946	1113.5875	1123.8845	1147.2021	1157.5911	1183.9516	1205.1962	1297.9649	1316.8875	1319.6723	1375.081	1382.0125	1406.4874	1414.1292	1488.5351	1491.3317	1493.3578	1499.9671	1510.8687	1519.0402	2353.7956	2929.1756	3031.7066	3049.262	3059.0863	3093.7797	3099.2431	3119.2758	3127.8994	3133.3826	3148.0207	3180.3261	3194.34
CC(C#N)C(C)N1CC1	C[C@@H](C#N)[C@@H](C)N1CC1	
InChI=1S/C7H12N2/c1-6(5-8)7(2)9-3-4-9/h6-7H,3-4H2,1-2H3	InChI=1S/C7H12N2/c1-6(5-8)7(2)9-3-4-9/h6-7H,3-4H2,1-2H3/t6-,7+/m0/s1
