12
gdb 129946	3.42465	1.85369	1.20423	6.9814	61.43	-0.2373	-0.0263	0.2109	910.576	0.079907	-464.947393	-464.940863	-464.939919	-464.97827	24.749	
N	 0.1043734761	 1.4015098098	 0.1680099538	-0.602241
C	-0.0115293278	 0.0352350948	 0.0377700683	 0.306055
C	-1.0602293775	-0.8269939723	-0.0145787453	-0.125851
O	-0.6160350142	-2.1604467359	-0.0398253802	-0.214783
C	 0.7134063192	-2.0767537659	-0.0171081855	 0.55864
N	 1.7494678881	-2.8813160095	-0.0440161427	-0.34901
N	 2.8122216512	-2.0236061044	-0.0065428516	-0.093418
N	 2.46813797	-0.7666656766	 0.0401417051	-0.172761
N	 1.1095471557	-0.7939424782	 0.0372283892	-0.019722
H	 0.9312445693	 1.7834769876	-0.2726543182	 0.282703
H	-0.7272580871	 1.9158686937	-0.0838327469	 0.269931
H	-2.1249977531	-0.683854963	-0.0255067161	 0.160457
176.4859	208.2032	252.4891	275.5261	417.171	549.3204	596.1257	633.12	656.1276	684.5742	698.121	712.6793	770.5172	806.9914	996.81	1058.7497	1095.3465	1108.7465	1172.1088	1218.5944	1277.6121	1301.4831	1450.1477	1475.8921	1601.6042	1641.3633	1709.9533	3313.3132	3556.3806	3659.6049
NC1=COC2=NN=NN12	Nc1coc2nnnn12	
InChI=1S/C3H3N5O/c4-2-1-9-3-5-6-7-8(2)3/h1H,4H2	InChI=1S/C3H3N5O/c4-2-1-9-3-5-6-7-8(2)3/h1H,4H2
