23
gdb 81373	2.28971	1.52837	1.20962	1.6209	84.15	-0.2541	0.0707	0.3247	1164.1708	0.208118	-388.293383	-388.284862	-388.283918	-388.325901	34.536	
C	-0.2779862268	 1.3843146278	-0.1336154503	-0.425646
C	 0.0156386254	-0.1125717159	-0.1109907494	 0.028486
C	 1.3264665065	-0.546125502	-0.8464520544	 0.001503
C	 2.0738997417	-0.337364759	 0.4983096601	-0.237436
C	 0.7158159797	-0.6333873701	 1.1866887338	-0.034915
C	 0.5624025414	-2.1572544129	 1.3298458782	 0.129846
O	-0.5731776762	-2.5264472025	 2.1037583511	-0.441587
C	 0.5327444595	-2.8336158871	-0.0649265196	-0.220589
C	 1.2952499796	-2.0497310072	-1.1633360862	-0.229243
H	 0.5935717975	 1.9817759679	 0.1517228491	 0.116881
H	-0.5844713715	 1.7061196711	-1.1352087493	 0.112649
H	-1.0894042173	 1.6349762318	 0.558735097	 0.112683
H	-0.8916111798	-0.6499725583	-0.4140141856	 0.045999
H	 1.6457767278	 0.0452957339	-1.7095586464	 0.054456
H	 2.9071744191	-1.0135770245	 0.7181262581	 0.085543
H	 2.4084792782	 0.6906251464	 0.6486609624	 0.097213
H	 0.4864761044	-0.1408312524	 2.1357378809	 0.060952
H	 1.4124538999	-2.5281364724	 1.9148102525	 0.085155
H	-1.3575253369	-2.2198082589	 1.6351844115	 0.273109
H	 0.8839692172	-3.8668962144	 0.0053345231	 0.100446
H	-0.5228888849	-2.9019014509	-0.3536190635	 0.09367
H	 0.8138130333	-2.2307040166	-2.1312728906	 0.093378
H	 2.3260968823	-2.4119300838	-1.2581148226	 0.097446
120.778	194.9114	214.9311	241.2537	278.6481	289.986	370.0796	399.6426	430.5662	446.9979	551.8331	599.8216	755.6771	803.6972	816.5749	840.3016	890.1011	906.3111	928.8849	945.7735	1000.1181	1028.0101	1033.9115	1055.6945	1081.2684	1087.2364	1095.0677	1129.8968	1144.8562	1168.0148	1192.1473	1222.625	1247.7854	1274.1707	1278.0524	1294.3919	1300.7728	1326.867	1346.4956	1361.1978	1367.9882	1393.0832	1416.4709	1431.9933	1486.7041	1491.7752	1499.227	1503.2757	1509.0407	3012.3871	3024.1327	3027.9311	3030.7403	3039.1195	3043.7029	3058.9603	3064.1957	3070.187	3088.8822	3089.4471	3099.4893	3112.0056	3797.0927
CC1C2CC1C(O)CC2	C[C@H]1[C@H]2C[C@@H]1[C@@H](O)CC2	
InChI=1S/C8H14O/c1-5-6-2-3-8(9)7(5)4-6/h5-9H,2-4H2,1H3	InChI=1S/C8H14O/c1-5-6-2-3-8(9)7(5)4-6/h5-9H,2-4H2,1H3/t5-,6+,7-,8-/m0/s1
