22
gdb 103414	2.38914	1.38557	1.22598	2.7438	81.74	-0.2246	0.0733	0.298	1164.943	0.193126	-404.3012	-404.291539	-404.290595	-404.334993	37.055	
C	-0.1186896045	 1.5539026691	-0.0870414678	-0.416501
C	 0.0161832914	 0.0439702364	 0.047475608	-0.012484
C	 0.9983152836	-0.6743149511	-0.8873216419	-0.057097
N	 2.3540517988	-0.1697342711	-0.5508712984	-0.343666
C	 1.7475001345	-1.2540460717	 0.2569129297	-0.110393
C	 0.8104162345	-0.5853051009	 1.2813862114	 0.328417
C	 1.4611920889	 0.3667921235	 2.2788408053	-0.454749
C	-0.0450721115	-1.6325239434	 1.9841781189	-0.134476
O	-1.128687657	-0.9691654306	 2.6218096217	-0.425331
H	 0.8616002648	 2.0348542895	-0.1217955297	 0.133424
H	-0.6534242158	 1.8096756944	-1.0091370221	 0.103939
H	-0.6847531359	 1.9729067164	 0.750870436	 0.118976
H	-0.9727981417	-0.4204013192	-0.0008490646	 0.075545
H	 0.7983473402	-1.0910594839	-1.8677647006	 0.083904
H	 3.0066072182	-0.6101660342	-1.1986733149	 0.225389
H	 2.2432561713	-2.2142155761	 0.3534488434	 0.080917
H	 2.1138546977	 1.0765028294	 1.7677197242	 0.132761
H	 0.7031425928	 0.9172969426	 2.8423661409	 0.12708
H	 2.0692560894	-0.1936761184	 2.9995560175	 0.098327
H	-0.4090538023	-2.3673243844	 1.2471914986	 0.078673
H	 0.5707198166	-2.1793179625	 2.7180923174	 0.080151
H	-1.6663565139	-1.6294593839	 3.0679048668	 0.287193
112.5876	121.6125	202.1437	214.2157	217.816	243.5611	251.8295	273.1047	339.3095	373.7991	429.8791	534.9471	580.7656	651.1429	721.1338	815.1858	840.4647	856.7794	884.8079	934.4052	951.3451	984.9451	1020.0301	1039.0556	1068.2236	1074.6605	1097.2463	1111.7045	1130.2471	1153.8247	1197.8483	1207.216	1239.8122	1258.3871	1281.661	1324.1536	1331.0114	1367.4443	1385.2798	1398.1929	1407.8063	1456.7696	1486.0957	1493.3619	1499.7512	1509.6977	1522.5267	2952.3531	2981.7886	3031.1271	3033.4484	3066.0023	3093.2293	3101.4687	3125.9921	3139.5338	3162.291	3179.934	3473.0429	3834.5927
CC1C2NC2C1(C)CO	C[C@H]1[C@H]2N[C@H]2[C@]1(C)CO	
InChI=1S/C7H13NO/c1-4-5-6(8-5)7(4,2)3-9/h4-6,8-9H,3H2,1-2H3	InChI=1S/C7H13NO/c1-4-5-6(8-5)7(4,2)3-9/h4-6,8-9H,3H2,1-2H3/t4-,5+,6+,7+/m0/s1
