19
gdb 86121	2.9845	1.33966	0.94081	3.2887	80.56	-0.2021	0.0187	0.2207	1247.8178	0.15998	-419.270145	-419.260797	-419.259852	-419.304906	33.641	
C	-0.0769147876	 1.3792934004	 0.0043177214	-0.335555
N	 0.0092414776	-0.066562986	 0.0007169928	-0.147598
C	-1.2664582511	-0.7755298588	 0.0096952556	-0.227867
C	-1.1260789812	-2.2721610997	 0.0062271329	 0.22268
C	-2.3889642374	-3.0780667584	 0.0156938575	-0.474497
C	 0.0936244281	-2.8115891435	-0.0046174596	-0.057012
N	 1.2458797188	-2.0365838839	-0.0128991251	-0.3921
C	 1.2525298055	-0.6507936854	-0.0103044581	 0.488947
O	 2.3025431123	-0.028624818	-0.0175443742	-0.4242
H	 0.9331066905	 1.7848516099	-0.0033090857	 0.169813
H	-0.6233049629	 1.7373560213	-0.878777721	 0.116003
H	-0.6084443971	 1.7338857367	 0.897833937	 0.116003
H	-1.8504072461	-0.4531661513	 0.8916760814	 0.104151
H	-1.8643624261	-0.4503211942	-0.8618234617	 0.104159
H	-3.0168166705	-2.8559265586	-0.8580502274	 0.122674
H	-2.1770386985	-4.1507438949	 0.0111751137	 0.122905
H	-3.0009604622	-2.8601906417	 0.9016878196	 0.122697
H	 0.2579273937	-3.8832990176	-0.007534573	 0.109208
H	 2.1595622741	-2.4552259962	-0.0211066963	 0.25959
34.658	108.2115	145.7843	189.7537	195.7861	265.8351	271.273	368.4533	413.6211	452.9993	467.7024	500.71	596.5169	720.0006	752.1368	803.483	873.6094	923.279	987.1671	1014.4989	1061.8415	1088.2141	1153.7248	1163.1431	1206.7346	1236.1507	1254.6842	1277.6027	1316.7995	1399.4814	1419.7637	1432.8431	1462.462	1473.0375	1477.5176	1495.9984	1497.6142	1511.9952	1554.6427	1773.4581	1784.2747	2921.9928	2924.1224	3002.6985	3004.809	3043.9052	3044.4029	3107.3889	3171.2831	3193.8561	3681.1693
CN1CC(C)=CNC1=O	CN1CC(=CNC1=O)C	
InChI=1S/C6H10N2O/c1-5-3-7-6(9)8(2)4-5/h3H,4H2,1-2H3,(H,7,9)	InChI=1S/C6H10N2O/c1-5-3-7-6(9)8(2)4-5/h3H,4H2,1-2H3,(H,7,9)
