22
gdb 78322	2.86552	1.403	1.19696	1.5389	85.84	-0.2159	0.0764	0.2923	1169.2648	0.194076	-367.154334	-367.145783	-367.144839	-367.186725	34.4	
C	-0.0223642915	 1.4875689365	-0.0431896752	-0.414764
C	 0.0018910249	-0.0220020146	-0.0973064032	 0.007603
C	 0.7823309457	-0.6967384921	-1.1507444567	-0.097683
N	 1.3021776361	-0.6086084866	 0.2859184788	-0.168655
C	 1.1841201666	-2.1220173007	 0.3623703211	-0.013621
C	-0.1362540877	-2.7855354722	 0.8355716305	-0.237833
C	-0.6140446141	-2.8819485737	-0.6507820886	-0.29782
C	 0.7316338262	-2.2384760101	-1.1164747433	 0.358762
C	 1.542643941	-2.9399697313	-2.1819461147	-0.496525
H	 0.9215478455	 1.9019396136	-0.4077363807	 0.127144
H	-0.8382180213	 1.8850505817	-0.656483819	 0.113481
H	-0.1661729282	 1.8343103663	 0.9852054634	 0.122257
H	-0.9082799793	-0.4903173888	 0.2676969734	 0.083049
H	 1.2615290088	-0.1346911473	-1.949970567	 0.081719
H	 2.1217779776	-2.5430089148	 0.7284666873	 0.074676
H	 0.0384833315	-3.7624565075	 1.2933244292	 0.101499
H	-0.7567462322	-2.2024275005	 1.520510127	 0.107598
H	-0.7377261144	-3.9103598127	-1.0003995235	 0.098173
H	-1.519260786	-2.3243958603	-0.9057908255	 0.098493
H	 1.0609728472	-2.8553879815	-3.164219022	 0.116777
H	 2.5453731692	-2.5060210446	-2.2654466889	 0.122248
H	 1.6543404946	-4.0064007387	-1.9581105724	 0.113422
170.4245	185.3291	216.1538	228.5781	236.3697	265.3354	330.1693	374.7477	421.2935	494.6188	615.6495	687.9082	717.9292	735.8429	785.4002	864.4066	878.8942	889.7299	932.9868	948.3785	972.1588	987.9063	1014.1853	1028.7973	1040.1259	1108.7709	1139.1155	1155.4409	1166.3688	1173.731	1209.0177	1219.6081	1223.6428	1255.0984	1268.1229	1271.3887	1308.8853	1350.2892	1409.9906	1412.5456	1431.9221	1471.7901	1488.1958	1489.6003	1492.1968	1494.7628	1496.4871	3018.067	3035.2061	3053.2023	3061.5882	3080.5664	3091.7776	3093.3563	3098.4763	3100.9895	3114.0417	3116.1319	3123.3178	3142.3431
CC1C2N1C1CCC21C	C[C@H]1[C@H]2N1[C@H]1CC[C@@]21C	
InChI=1S/C8H13N/c1-5-7-8(2)4-3-6(8)9(5)7/h5-7H,3-4H2,1-2H3	InChI=1S/C8H13N/c1-5-7-8(2)4-3-6(8)9(5)7/h5-7H,3-4H2,1-2H3/t5-,6-,7+,8+,9?/m0/s1
