21
gdb 95063	2.86404	1.53989	1.2368	0.7808	77.77	-0.2373	0.083	0.3203	1092.3323	0.184473	-424.221507	-424.213685	-424.212741	-424.253386	31.692	
C	 0.0759460046	 1.5497084499	 0.0599188766	-0.400682
C	-0.0123936563	 0.030114492	-0.0073041694	 0.149829
C	 0.640288886	-0.5272115828	-1.2882703887	-0.224704
C	 0.7894502334	-2.0510832936	-1.2775863096	 0.098235
C	 1.7555449403	-2.6189037347	-0.2140433098	-0.265233
C	 0.4635577207	-2.8535643262	 0.5904332103	 0.101513
C	 0.1665146395	-1.7504411547	 1.6008929341	-0.0967
O	 0.606828367	-0.4724350564	 1.1807995157	-0.26715
O	-0.3387470949	-2.6832137726	-0.6093616925	-0.301576
H	 1.1219898039	 1.8666443049	 0.1213428883	 0.121486
H	-0.3709802323	 2.0049911826	-0.8292172147	 0.112516
H	-0.4467843722	 1.9242780316	 0.9438573323	 0.119215
H	-1.0671583785	-0.2793265728	-0.0073482356	 0.082085
H	 0.0192270416	-0.2235978265	-2.1400299693	 0.101326
H	 1.6298095826	-0.0751485514	-1.4369939396	 0.099104
H	 0.9125921685	-2.439445326	-2.2939456497	 0.075203
H	 2.2332890338	-3.5466811725	-0.5320507237	 0.104242
H	 2.489743761	-1.9365722811	 0.2142812725	 0.114359
H	 0.3054846863	-3.8406016791	 1.0403655821	 0.074627
H	-0.9164502517	-1.7434802008	 1.8062050989	 0.098441
H	 0.6934470965	-1.9551176897	 2.5402909716	 0.103863
125.367	215.4747	247.1326	296.2362	305.9313	339.8631	380.317	397.6655	472.6807	586.1783	654.8929	759.9585	813.7423	832.6423	871.2768	891.2525	916.0246	924.3936	956.8311	999.8838	1022.2122	1042.3002	1072.1815	1117.0048	1124.5766	1134.6799	1156.6534	1161.5436	1218.5394	1247.5546	1264.3178	1297.1727	1317.5809	1343.7627	1349.6685	1362.6974	1383.7886	1399.2494	1407.7302	1417.2505	1468.1872	1476.3893	1483.7579	1486.7002	1499.3736	2977.6028	3005.0318	3019.4667	3040.2148	3041.265	3049.6183	3065.092	3065.5447	3086.8574	3112.2821	3120.5425	3147.9833
CC1CC2CC(CO1)O2	C[C@H]1C[C@H]2C[C@@H](CO1)O2	
InChI=1S/C7H12O2/c1-5-2-6-3-7(9-6)4-8-5/h5-7H,2-4H2,1H3	InChI=1S/C7H12O2/c1-5-2-6-3-7(9-6)4-8-5/h5-7H,2-4H2,1H3/t5-,6-,7-/m0/s1
