20
gdb 116747	5.57291	0.61702	0.56137	2.7307	85.01	-0.2332	0.0165	0.2496	1999.0626	0.169581	-436.513671	-436.502649	-436.501704	-436.551702	37.429	
C	-0.0005198506	 1.270936629	 0.31136005	-0.395155
C	 0.3337974862	-0.1774563516	 0.6794320495	-0.107612
N	 0.8805899981	-1.0517364793	-0.3470199889	-0.277232
C	 1.0721837915	-0.6124109397	-1.5187046805	 0.127466
N	 1.5948675921	-1.4455155228	-2.4955466269	-0.395185
C	 1.812302813	-1.0268904428	-3.805531673	 0.524856
O	 1.5538406903	 0.1024216943	-4.1814736274	-0.399777
N	 2.3279778747	-2.0038161323	-4.615268541	-0.369975
C	 2.674950166	-1.7393700653	-5.9968948109	-0.329886
H	 0.8843768413	 1.8210601736	-0.0258946848	 0.12379
H	-0.7556982873	 1.3270557407	-0.4798084926	 0.124262
H	-0.3993762267	 1.7892891268	 1.188566227	 0.11192
H	 1.0454169296	-0.1829480952	 1.516659752	 0.108061
H	-0.5678906408	-0.668583406	 1.0707048198	 0.108258
H	 0.873914748	 0.3905350075	-1.8972104646	 0.134771
H	 1.7871117932	-2.3923879713	-2.2037046153	 0.245788
H	 2.5878611635	-2.8904241431	-4.2171044946	 0.240668
H	 2.2981791517	-0.7458382625	-6.2409748951	 0.175229
H	 3.7599809487	-1.7538295286	-6.1560666995	 0.124611
H	 2.2123471574	-2.4731062713	-6.665480183	 0.125143
23.6535	62.6089	69.3207	97.5991	133.4434	186.3098	225.3755	251.2229	318.9615	333.3329	355.5703	375.4081	463.3016	568.2579	616.5764	736.617	764.697	780.2891	884.189	982.946	1014.8264	1072.0327	1088.9256	1116.734	1149.2245	1157.7981	1172.5797	1224.7447	1274.7055	1310.8729	1351.0086	1382.4178	1407.6895	1441.0118	1478.5234	1493.7455	1495.3017	1499.0531	1504.5253	1509.3941	1571.5351	1755.8542	1796.4716	3009.1064	3023.9128	3026.8249	3033.6036	3077.2603	3102.3369	3107.1419	3139.1897	3157.2304	3614.3111	3647.979
CCN=CNC(=O)NC	CCN=CNC(=O)NC	
InChI=1S/C5H11N3O/c1-3-7-4-8-5(9)6-2/h4H,3H2,1-2H3,(H2,6,7,8,9)	InChI=1S/C5H11N3O/c1-3-7-4-8-5(9)6-2/h4H,3H2,1-2H3,(H2,6,7,8,9)
