17
gdb 43803	2.49488	1.65346	1.17493	2.6373	74.39	-0.2436	0.0187	0.2623	1063.1007	0.135966	-417.978738	-417.970549	-417.969605	-418.011593	31.003	
O	 0.0262981374	 0.0449917463	-0.1019547011	-0.378228
C	 0.0217622604	 1.2427410786	 0.007048457	 0.439719
N	-0.9757302706	 2.1920498673	 0.1046590616	-0.472309
C	-0.0754982189	 3.3404301162	 0.0635545161	 0.395037
C	-0.2218244199	 4.5793328186	-0.7532513917	-0.316769
C	-0.2302013767	 4.6438553885	 0.7709666152	-0.329958
C	 1.077817559	 2.3459944968	 0.058883304	 0.063153
C	 2.3852719879	 2.2973348905	 0.7438583537	-0.299491
N	 2.2973399801	 2.4280674708	-0.7212831624	-0.363869
H	-1.9750787601	 2.1183817957	-0.0088615486	 0.252686
H	 0.6588584759	 4.9279158427	-1.2824599732	 0.138022
H	-1.1608489201	 4.7519244782	-1.2689242974	 0.116821
H	-1.176681354	 4.8509062559	 1.2598394661	 0.118915
H	 0.6342403313	 5.0609431888	 1.2777065527	 0.123349
H	 2.7584281731	 3.1790343057	 1.2573265041	 0.126652
H	 2.6872130917	 1.3453396021	 1.1728935921	 0.135148
H	 2.4743640336	 1.5324667574	-1.1733203383	 0.251124
73.4654	164.3697	179.4775	204.2235	251.4012	308.0577	361.4963	515.7416	536.0769	560.8528	642.9716	737.6841	766.783	806.8616	864.1137	877.4632	918.4073	950.7546	966.4585	986.1659	1012.4877	1039.4718	1055.6995	1073.7646	1115.5423	1137.7371	1184.5057	1236.8402	1239.6199	1270.9722	1301.223	1399.8853	1454.9247	1456.9797	1505.5344	1527.104	1892.7518	3108.6231	3125.705	3130.2315	3198.3972	3206.9311	3222.6179	3484.5375	3627.3585
O=C1NC2(CC2)C11CN1	O=C1NC2(CC2)[C@]21CN2	
InChI=1S/C6H8N2O/c9-4-6(3-7-6)5(8-4)1-2-5/h7H,1-3H2,(H,8,9)	InChI=1S/C6H8N2O/c9-4-6(3-7-6)5(8-4)1-2-5/h7H,1-3H2,(H,8,9)/t6-/m1/s1
