13
gdb 132863	3.06436	1.44758	0.98917	4.1628	65.35	-0.2509	-0.0798	0.1711	1097.3435	0.088097	-497.89895	-497.891458	-497.890513	-497.931178	27.476	
C	 0.0024100208	 1.521471285	 0.0379421988	-0.468482
C	-0.0230405659	 0.023733601	 0.0019317806	 0.232175
C	-1.1409889787	-0.6960499223	-0.208241224	 0.005324
O	-1.1400668341	-2.0541624844	-0.2366263231	-0.199507
C	 0.0172050771	-2.7755846438	-0.0499171037	 0.328424
O	 0.0081536306	-3.9716203696	-0.0766610691	-0.315463
C	 1.1898222538	-1.900432923	 0.1730779484	 0.192261
F	 2.3173356738	-2.5566039121	 0.3560078565	-0.032464
N	 1.1882365272	-0.6304348109	 0.1995100512	-0.316889
H	 0.6768442491	 1.9124448402	-0.7308146303	 0.147758
H	-0.9932264785	 1.9399252866	-0.1268132235	 0.129356
H	 0.3742160833	 1.8758240932	 1.0048564955	 0.147761
H	-2.1292757084	-0.2880871499	-0.3720710973	 0.149746
94.0196	166.2723	214.198	286.5606	328.44	341.8174	448.2047	473.5032	540.0845	598.7498	609.5052	661.275	790.3862	822.8559	853.8234	991.9495	1014.1143	1067.446	1083.9041	1199.8991	1289.242	1345.758	1371.2034	1421.5671	1471.7421	1490.4068	1639.5417	1697.8809	1855.9779	3040.5854	3099.539	3128.8257	3231.0072
CC1=COC(=O)C(F)=N1	Cc1coc(=O)c(F)n1	
InChI=1S/C5H4FNO2/c1-3-2-9-5(8)4(6)7-3/h2H,1H3	InChI=1S/C5H4FNO2/c1-3-2-9-5(8)4(6)7-3/h2H,1H3
