19
gdb 66213	3.29441	1.23539	1.10756	2.1708	77.2	-0.2441	-0.037	0.2071	1149.4549	0.159181	-423.055427	-423.046985	-423.046041	-423.088382	32.607	
O	 0.0519765506	 1.4973429733	 0.0111965487	-0.474482
C	 0.017448299	 0.0877199178	-0.0168060685	 0.268699
C	-1.4511962807	-0.3994741563	-0.0098594181	-0.234755
C	-2.1947924766	 0.1489220385	-1.2338936833	-0.257425
C	-1.4174577247	-0.0691582166	-2.5035983151	-0.038112
C	-0.1138445125	-0.3379024143	-2.5193327298	-0.053997
C	 0.7370663843	-0.4412117315	-1.2805704645	-0.274455
C	 0.7147512029	-0.449094531	 1.2187446941	 0.116377
O	 1.1802586163	 0.2768677971	 2.0636603115	-0.272142
H	 0.4975969964	 1.7301471999	 0.8412394439	 0.290233
H	-1.4677676728	-1.4964532765	-0.0244388473	 0.09888
H	-1.9374428573	-0.0700354182	 0.9140775799	 0.104972
H	-3.1813418626	-0.3237995328	-1.3075673023	 0.101568
H	-2.377985652	 1.2222494904	-1.0943653056	 0.132505
H	-1.9619568347	 0.014883404	-3.4405842534	 0.086649
H	 0.3998046155	-0.4905272019	-3.4653077768	 0.086808
H	 1.6582337417	 0.140110347	-1.4034372559	 0.122568
H	 1.0496591626	-1.4860003285	-1.1313151205	 0.101459
H	 0.7654995246	-1.5541577504	 1.3101840029	 0.094651
87.3961	106.559	183.6927	296.856	311.1928	352.2148	385.9502	389.2049	413.2325	473.1448	538.5684	647.8976	667.8772	763.7437	824.7239	878.7113	881.5138	919.7973	948.0579	987.2193	1005.7143	1017.6537	1056.1965	1060.4588	1117.1086	1145.8335	1199.0685	1226.2178	1265.8884	1300.2284	1341.5923	1345.5601	1369.9276	1395.4996	1415.38	1436.808	1456.4371	1469.5603	1481.9105	1730.1163	1812.2675	2918.7014	2992.5684	3025.1126	3028.7041	3057.0733	3057.5022	3082.0019	3146.5605	3170.0484	3687.0535
OC1(CCC=CC1)C=O	O[C@]1(CCC=CC1)C=O	
InChI=1S/C7H10O2/c8-6-7(9)4-2-1-3-5-7/h1-2,6,9H,3-5H2	InChI=1S/C7H10O2/c8-6-7(9)4-2-1-3-5-7/h1-2,6,9H,3-5H2/t7-/m1/s1
