22
gdb 120925	3.3216	0.86157	0.79033	1.6762	82.18	-0.2274	0.0765	0.3039	1538.5139	0.193459	-404.301838	-404.292103	-404.291159	-404.336757	36.116	
C	 0.00425666	 1.5332591341	 0.111869807	-0.492727
C	-0.0501993975	 0.0384440708	-0.0059529584	 0.335742
C	-0.8687489886	-0.8193680035	 0.8759842741	-0.285738
N	 0.6001297463	-0.8972957595	 1.0099137652	-0.167073
C	 1.0419731885	-1.7651699604	-0.1382577098	-0.179701
C	 0.501968728	-0.76017347	-1.1952344563	-0.054868
C	-0.4464038305	-1.2161161567	-2.2995338156	-0.203913
C	 0.2473951003	-2.064422341	-3.3588946048	-0.071439
O	-0.7246763142	-2.4426031381	-4.3214029145	-0.420526
H	 0.9876525098	 1.9178431746	-0.1803947538	 0.119575
H	-0.7467699416	 2.0034924496	-0.5342816833	 0.121968
H	-0.1906900042	 1.8496520211	 1.1407100514	 0.128616
H	-1.3462457267	-0.3409585349	 1.7262377219	 0.11559
H	-1.4083817648	-1.6803311626	 0.486449121	 0.107477
H	 2.127778226	-1.8788753237	-0.1338118852	 0.107177
H	 0.5812430512	-2.760323988	-0.13074441	 0.098738
H	 1.3395809561	-0.2111349598	-1.6412241455	 0.07421
H	-1.2756449649	-1.7985820307	-1.8822286929	 0.10456
H	-0.893318542	-0.3432970326	-2.7919353084	 0.10577
H	 1.0641043111	-1.4857981027	-3.8218518319	 0.083672
H	 0.7056092405	-2.9494226557	-2.8869405107	 0.087569
H	-0.2942976228	-2.9875783903	-4.9865145896	 0.285319
74.9712	88.2767	119.047	176.6764	184.4708	259.7519	262.953	317.1144	339.5755	416.8374	488.8733	518.0952	630.6951	729.8154	769.622	794.5513	863.6707	885.362	938.7109	965.7472	986.4983	1028.8604	1034.6722	1077.994	1092.6092	1099.846	1112.0816	1133.2984	1161.0824	1203.3476	1213.7741	1235.6467	1256.9041	1276.0222	1311.1208	1321.6275	1329.6105	1368.4559	1404.2854	1424.7181	1461.867	1482.4449	1488.9109	1492.5589	1495.5046	1515.7317	1527.4376	2956.1478	2980.5378	3025.4196	3030.4957	3032.114	3034.6111	3076.2598	3086.2578	3099.7818	3106.5306	3110.3676	3188.7095	3829.6914
CC12CN1CC2CCO	C[C@]12CN1C[C@H]2CCO	
InChI=1S/C7H13NO/c1-7-5-8(7)4-6(7)2-3-9/h6,9H,2-5H2,1H3	InChI=1S/C7H13NO/c1-7-5-8(7)4-6(7)2-3-9/h6,9H,2-5H2,1H3/t6-,7-,8?/m1/s1
