17
gdb 40756	3.9186	1.17244	1.05522	1.9452	68.27	-0.2542	0.045	0.2992	1151.236	0.135925	-458.88339	-458.875893	-458.874948	-458.916113	28.001	
C	-0.0572378311	 1.3524185228	-0.1048715851	-0.178565
O	 1.0903167691	 0.5083305103	-0.1882082719	-0.232479
C	-0.1913775523	-0.1064410749	-0.0161517501	 0.066685
C	-0.4065124184	-0.7737277404	 1.3103168642	 0.089227
O	-1.8145158321	-0.8922602445	 1.6740577951	-0.318119
C	-1.6931815471	-2.3083109402	 1.9074806112	 0.07201
C	-1.9883485294	-3.1457214753	 0.6572166012	-0.093644
O	-0.6137726269	-3.0029444424	 0.2040964328	-0.289694
C	-0.2373795227	-2.3053093183	 1.4056384737	 0.033965
H	-0.1309915544	 1.955963826	 0.7988447507	 0.118418
H	-0.3356222218	 1.8583489424	-1.0277563623	 0.120015
H	-0.5532435889	-0.6594521536	-0.8803712945	 0.111394
H	 0.1506336264	-0.2346397319	 2.0885344975	 0.086775
H	-2.0695743884	-2.6197471672	 2.8825811339	 0.093459
H	-2.2302473039	-4.1985990179	 0.8488133137	 0.108518
H	-2.7134003145	-2.7097681999	-0.0374536668	 0.11741
H	 0.6489201665	-2.7213570848	 1.8859367365	 0.094625
69.5489	104.3659	165.5274	260.181	321.9108	396.0324	444.7857	551.969	728.7042	801.9612	809.6091	869.3847	877.4904	920.3812	948.1193	957.2428	991.8092	1000.643	1020.7161	1071.1672	1079.0742	1097.3617	1150.4921	1158.7955	1167.1714	1185.3132	1200.9005	1229.112	1273.4631	1285.1772	1295.1888	1306.5729	1332.6038	1356.9421	1456.7382	1501.9229	1528.6286	3018.531	3022.0221	3086.1004	3086.8657	3101.2236	3113.8208	3143.563	3174.9023
C1OC1C1OC2COC12	C1O[C@H]1[C@H]1O[C@H]2CO[C@@H]12	
InChI=1S/C6H8O3/c1-3(7-1)6-5-4(9-6)2-8-5/h3-6H,1-2H2	InChI=1S/C6H8O3/c1-3(7-1)6-5-4(9-6)2-8-5/h3-6H,1-2H2/t3-,4+,5-,6-/m1/s1
