25
gdb 111973	3.16351	1.05141	0.87524	0.1969	94.38	-0.2313	0.0267	0.258	1466.4073	0.229069	-352.377966	-352.368038	-352.367094	-352.412243	38.634	
C	-0.0752946416	 1.6911312462	 0.2134382496	-0.38982
C	 0.0420462282	 0.1674891646	 0.0950603287	-0.192408
C	-1.312473028	-0.5298758535	-0.1049294703	-0.00419
C	-1.9824796993	-0.2975622032	-1.4455509557	-0.077454
C	-2.6809167415	-1.361929262	-1.8337226499	-0.075129
C	-2.5959664339	-2.4871874375	-0.8222400609	-0.012855
C	-2.6291571603	-3.8965100072	-1.421846779	-0.411178
C	-1.325348948	-2.0914674386	 0.0008888302	-0.03279
C	-0.0429592126	-2.7408286017	-0.5359872533	-0.390211
H	 0.9049650549	 2.1514855624	 0.3721255334	 0.110299
H	-0.5048681541	 2.1370728207	-0.6897362572	 0.116938
H	-0.7163840961	 1.9735121385	 1.0561720505	 0.113472
H	 0.717365342	-0.0829558889	-0.7312879885	 0.098131
H	 0.5123575338	-0.2232274647	 1.0066835854	 0.093059
H	-1.9846453988	-0.1408258189	 0.6796051406	 0.071668
H	-1.9262240794	 0.6452133276	-1.9789123119	 0.087039
H	-3.2841784233	-1.4303294144	-2.733460852	 0.083992
H	-3.4659697209	-2.4031524077	-0.1499592663	 0.075894
H	-1.8279304125	-4.0508390235	-2.1505001386	 0.118901
H	-2.5334498189	-4.6640079876	-0.6462328149	 0.110927
H	-3.5807501066	-4.0671474329	-1.9368841369	 0.109221
H	-1.4451816652	-2.3944558187	 1.0475686621	 0.058779
H	 0.1326310205	-2.4840026789	-1.5858775783	 0.11784
H	 0.8309722744	-2.4204802639	 0.0376703991	 0.110382
H	-0.0967168329	-3.8306787662	-0.4627056957	 0.109492
74.7951	117.6413	176.236	217.2404	246.2198	264.4897	275.0298	299.0115	317.267	334.0063	420.2591	466.2078	574.4167	659.1808	722.8807	756.9843	778.0002	799.444	837.8126	891.0903	954.6495	961.8968	966.7096	1002.5337	1037.9618	1043.211	1063.6396	1085.4548	1106.7848	1120.001	1146.6377	1164.3353	1189.571	1246.0663	1276.9109	1295.5627	1300.296	1329.8951	1354.3929	1369.9554	1384.3661	1389.828	1408.8612	1412.4496	1415.0241	1484.4749	1494.8171	1496.4244	1501.3956	1506.7536	1509.1521	1514.3226	1679.5241	2943.6236	2957.1508	3019.386	3030.7014	3030.9069	3034.8945	3040.9146	3058.7939	3093.026	3097.9125	3101.3444	3106.6494	3108.646	3112.6957	3171.905	3199.236
CCC1C=CC(C)C1C	CC[C@H]1C=C[C@@H](C)[C@H]1C	
InChI=1S/C9H16/c1-4-9-6-5-7(2)8(9)3/h5-9H,4H2,1-3H3	InChI=1S/C9H16/c1-4-9-6-5-7(2)8(9)3/h5-9H,4H2,1-3H3/t7-,8-,9+/m1/s1
