20
gdb 39172	2.71512	1.60313	1.08041	2.4435	85.24	-0.2408	0.0089	0.2497	1136.2273	0.173612	-366.008005	-366.000226	-365.999282	-366.040648	30.473	
C	 0.7013102024	 1.8043619932	 1.1409772862	-0.18868
C	 1.5030573035	 1.4432203967	-0.1471653498	-0.101804
C	 1.1923963985	 2.1891584955	-1.4396355167	-0.218185
C	 1.7144634499	 1.4584331416	-2.686880193	-0.251466
C	 1.0980715074	 0.117826222	-3.0335354564	-0.050821
C	 0.6950277862	-0.9049718804	-2.2743595211	-0.054299
C	 0.7051427171	-1.0964319929	-0.7738339464	-0.371794
C	 0.7435065936	 0.1536608742	 0.0339297818	 0.35122
N	 0.0618528524	 0.4483416195	 1.0874227448	-0.262494
H	 1.2893083006	 1.9640084882	 2.0501621532	 0.106977
H	-0.0253368652	 2.6166025708	 1.0362843019	 0.107654
H	 2.5877549919	 1.3640544062	-0.0017989115	 0.076901
H	 0.1070858718	 2.3241892189	-1.5272394552	 0.104788
H	 1.6366885073	 3.1915974473	-1.4046887002	 0.096628
H	 1.5796120012	 2.1176057115	-3.551852355	 0.103627
H	 2.804467483	 1.3310360492	-2.5934629582	 0.11138
H	 1.0105178482	-0.0434834012	-4.1070135905	 0.087036
H	 0.32400808	-1.7795245916	-2.8059554255	 0.091659
H	-0.168584547	-1.6789580667	-0.4598269931	 0.131927
H	 1.5799806572	-1.7164215418	-0.5145149655	 0.129745
47.8436	156.5239	246.3326	294.7196	317.1351	341.1706	410.7712	458.0066	599.4648	635.5668	701.7423	755.3168	822.8277	835.8196	880.145	915.8257	937.8387	950.7742	957.0749	1012.1112	1015.2537	1057.9515	1085.9513	1105.3902	1130.9719	1153.0114	1215.6212	1223.3624	1244.5499	1266.3261	1280.0946	1299.2154	1345.7848	1378.2627	1385.8731	1389.9429	1433.9647	1451.3865	1479.3273	1484.4618	1490.221	1685.2457	1726.5512	2973.1721	2989.4991	3019.8908	3027.2268	3043.8973	3053.8629	3061.6095	3064.8259	3095.9969	3122.6666	3148.3333
C1C2CCC3C4CC23N14	C1[C@@H]2CCC=CC[C]2[N]1	
InChI=1S/C8H11N/c1-2-6-7-3-8(6)5(1)4-9(7)8/h5-7H,1-4H2	InChI=1S/C8H11N/c1-2-4-7-6-9-8(7)5-3-1/h1,3,7H,2,4-6H2/t7-/m0/s1
