21
gdb 15264	2.79401	1.41051	1.11811	2.6288	75.5	-0.2124	0.0687	0.2811	1164.8664	0.186909	-366.222187	-366.212298	-366.211354	-366.257199	35.151	
C	 0.7818385412	-0.091185572	-0.4430763477	-0.37799
C	 0.1353504048	-0.8251148487	 0.7388376367	-0.20496
C	-1.3306446524	-1.1234856347	 0.4799265266	-0.009012
C	-1.8345882248	-2.3801451898	-0.1657661736	 0.007403
C	-0.9274565427	-3.5044563851	-0.5982925249	-0.106832
O	-1.6657942313	-4.7157070019	-0.4726353222	-0.42092
N	-2.127745608	-2.086935723	 1.2375446765	-0.10825
C	-1.5386427074	-2.8904702419	 2.299004571	-0.311693
H	 1.820817973	 0.1732384098	-0.2242755125	 0.1134
H	 0.7740447488	-0.7104395204	-1.3461470645	 0.118447
H	 0.2437664254	 0.8346055803	-0.6740497936	 0.119591
H	 0.700979938	-1.7344733831	 0.9568909563	 0.098416
H	 0.2076912227	-0.1992711928	 1.6380862294	 0.102759
H	-1.8919752509	-0.2148023626	 0.2524346867	 0.083323
H	-2.7141565949	-2.3067034535	-0.8057513226	 0.089889
H	-0.6279226026	-3.3301514579	-1.6446204668	 0.08966
H	-0.0080396453	-3.5424844533	 0.0001504236	 0.084587
H	-1.1171840524	-5.4352311991	-0.7992742649	 0.285953
H	-0.4783318341	-3.1530208955	 2.1753149907	 0.094472
H	-1.6372884794	-2.3463307021	 3.2440747962	 0.116685
H	-2.1041927776	-3.8229798928	 2.3774331597	 0.135072
57.3479	72.3323	134.6983	158.2956	190.5272	227.4389	257.195	280.6214	301.0555	347.8569	505.2347	522.6057	547.2347	729.6034	783.0843	816.3964	843.2793	977.0774	1015.0896	1035.4289	1063.003	1067.3885	1084.6352	1138.5913	1154.2529	1169.2865	1182.3336	1204.0338	1249.2979	1260.681	1281.6261	1341.5396	1353.8402	1387.2717	1410.7633	1432.5465	1456.9774	1473.3797	1486.5532	1490.3767	1499.1872	1502.0789	1507.7178	1521.2356	2969.903	2995.1304	3021.3837	3026.3075	3033.1032	3067.3105	3071.1107	3086.7092	3101.6662	3105.9723	3109.3323	3111.5127	3823.3305
CCC1C(CO)N1C	CC[C@H]1[C@@H](CO)N1C	
InChI=1S/C6H13NO/c1-3-5-6(4-8)7(5)2/h5-6,8H,3-4H2,1-2H3	InChI=1S/C6H13NO/c1-3-5-6(4-8)7(5)2/h5-6,8H,3-4H2,1-2H3/t5-,6+,7?/m0/s1
