19
gdb 39928	3.22447	1.50907	1.21395	1.9489	80.92	-0.241	0.008	0.249	1060.9474	0.160748	-385.870718	-385.863342	-385.862398	-385.902686	29.513	
C	-0.1054093224	 1.4896919373	 0.0487808848	-0.252806
O	 1.1526387893	 0.8162952315	 0.0110243914	-0.290399
C	-0.0516531601	 0.0211449776	 0.0277488345	 0.428758
C	-0.2834376115	-0.8515183702	 1.2107213858	-0.143006
C	-0.567968476	-2.1042728052	 0.8452815685	-0.088132
C	-0.5936951487	-2.2868825932	-0.6484419732	-0.071978
C	-2.0093273899	-2.3354411943	-1.307274181	-0.225881
C	-1.894187128	-0.8211706084	-1.6347133778	-0.225882
C	-0.3982969826	-0.8290193507	-1.1853426717	-0.113366
H	-0.3310451266	 2.0140882248	 0.9776968638	 0.107956
H	-0.3786192793	 2.02875292	-0.8587339036	 0.110003
H	-0.1980866048	-0.4828485289	 2.2263308284	 0.100203
H	-0.7715415738	-2.919633567	 1.5321553223	 0.09873
H	 0.0992077348	-3.0652588488	-0.9826966975	 0.077663
H	-2.030217664	-2.9636653857	-2.2013794819	 0.10187
H	-2.8337050257	-2.6357080978	-0.6558186963	 0.098605
H	-2.0682221288	-0.5498744396	-2.6781228889	 0.102153
H	-2.5225916999	-0.1837911205	-1.00728434	 0.102653
H	 0.320487948	-0.6903789909	-1.9935180376	 0.082859
70.7611	175.13	215.3879	305.2909	349.0824	413.7692	502.1924	585.5022	689.4075	722.6485	771.38	779.3618	819.0552	845.6532	872.2326	881.715	927.1294	963.1488	971.1795	978.6156	992.696	1037.1562	1061.0547	1101.9848	1125.1167	1134.172	1161.1113	1190.9936	1220.9829	1240.906	1244.2921	1265.9355	1275.4558	1290.7616	1322.9393	1351.552	1427.2174	1474.8705	1492.2708	1528.8704	1663.6126	3051.9419	3059.0431	3065.1085	3068.7893	3100.0628	3108.7062	3122.9915	3151.5883	3179.4726	3209.9239
C1OC11C=CC2CCC12	C1O[C@]21C=C[C@H]1CC[C@@H]21	
InChI=1S/C8H10O/c1-2-7-6(1)3-4-8(7)5-9-8/h3-4,6-7H,1-2,5H2	InChI=1S/C8H10O/c1-2-7-6(1)3-4-8(7)5-9-8/h3-4,6-7H,1-2,5H2/t6-,7-,8+/m1/s1
