16
gdb 16093	4.40405	1.70111	1.4725	0.9732	76.8	-0.2253	0.0134	0.2387	884.3174	0.130823	-309.433989	-309.42706	-309.426115	-309.464696	27.775	
C	 0.0301501848	-1.2173631459	-0.0425368539	-0.417665
C	 0.0270378141	-0.0146088215	-0.0014087871	 0.185514
C	 0.0033984524	 1.4155685074	 0.050895424	 0.183803
C	 0.3814418592	 2.2354138814	-1.1844247644	-0.310706
C	 1.2706871297	 2.2901096003	 0.0207794154	-0.086912
C	 1.0684821876	 3.4214306118	 1.0265694857	-0.278162
C	-0.3576473525	 3.2309071487	 1.4998384167	-0.080604
C	-0.9169145177	 2.1306338693	 0.9953271357	-0.151575
H	 0.0380992062	-2.2782688484	-0.0761975835	 0.185116
H	 0.7473956254	 1.6806063658	-2.041214217	 0.123216
H	-0.2516391858	 3.0852357973	-1.4186089941	 0.117309
H	 2.2396840816	 1.8117344094	-0.0477043651	 0.102036
H	 1.7783920425	 3.3489305483	 1.8610484737	 0.113395
H	 1.2253206416	 4.4085404176	 0.5725210464	 0.113118
H	-0.8512789368	 3.9356554799	 2.1590571377	 0.098228
H	-1.9189954223	 1.7711420586	 1.1947601698	 0.103889
144.5161	155.1232	280.7139	356.8643	460.3796	485.1008	521.7935	562.5403	585.2063	646.5543	716.2816	747.2633	759.3363	820.8521	890.6408	922.9663	943.3683	956.0322	970.3715	1028.2903	1050.4261	1073.1213	1089.5637	1136.3282	1190.8528	1236.1823	1260.8593	1316.0788	1339.8483	1397.6357	1470.3145	1482.4488	1671.6944	2234.1474	3017.4854	3044.7316	3127.5562	3191.0578	3193.2898	3219.6823	3222.5234	3504.8364
C#CC12CC1CC=C2	C#C[C@]12C[C@H]1CC=C2	
InChI=1S/C8H8/c1-2-8-5-3-4-7(8)6-8/h1,3,5,7H,4,6H2	InChI=1S/C8H8/c1-2-8-5-3-4-7(8)6-8/h1,3,5,7H,4,6H2/t7-,8+/m1/s1
