17
gdb 65799	2.09749	1.65066	1.37009	3.0302	74.8	-0.2458	-0.0597	0.1862	1034.5482	0.134746	-421.877069	-421.868514	-421.86757	-421.91059	31.331	
C	 0.0619226565	 1.6870068391	 0.2362282291	-0.444563
C	 0.033096918	 0.1588980363	 0.0468804838	 0.06653
C	 0.7119222586	-0.3648447876	-1.229215978	-0.329253
C	 1.7527179215	-1.3347595689	-0.7335008911	-0.047737
C	 1.8110696086	-1.4206137105	 0.6011995499	-0.173212
C	 0.8184394842	-0.5174648653	 1.212686289	 0.353002
O	 0.6124653711	-0.3076822036	 2.3852935687	-0.344567
C	-1.4143069473	-0.3116051712	 0.1778295612	 0.145565
O	-2.0156141182	-0.9514943512	-0.6446751675	-0.252937
H	 1.0902397929	 2.0565526279	 0.1816019507	 0.130536
H	-0.526544349	 2.1927255543	-0.5353636563	 0.127841
H	-0.3376680885	 1.9516421448	 1.2190160469	 0.146641
H	-0.0113533117	-0.8564437773	-1.8886891462	 0.150349
H	 1.1760481777	 0.4413731944	-1.8101337625	 0.120162
H	 2.3807567778	-1.8932731635	-1.4195738927	 0.122797
H	 2.4750500443	-2.0370810314	 1.1928230985	 0.123314
H	-1.8850070866	-0.0063998362	 1.1363836465	 0.105534
60.8829	95.3382	198.9974	214.6117	260.7303	276.2524	311.9433	367.8223	472.8694	572.7244	599.913	681.7075	719.0546	784.6844	830.6412	873.1156	921.2873	951.1953	969.5367	1004.1805	1018.4133	1095.4824	1115.3487	1138.4499	1177.9587	1214.9764	1252.3524	1325.216	1363.3213	1396.8422	1418.9358	1467.2584	1492.9812	1498.0021	1647.8195	1797.6697	1830.0466	2915.2685	3036.1315	3039.9704	3078.157	3111.5597	3123.3619	3192.7641	3230.9855
CC1(CC=CC1=O)C=O	C[C@]1(CC=CC1=O)C=O	
InChI=1S/C7H8O2/c1-7(5-8)4-2-3-6(7)9/h2-3,5H,4H2,1H3	InChI=1S/C7H8O2/c1-7(5-8)4-2-3-6(7)9/h2-3,5H,4H2,1H3/t7-/m0/s1
