16
gdb 14697	6.94266	0.59824	0.57087	1.8573	71.14	-0.2479	-0.0284	0.2195	1853.8259	0.127197	-383.715497	-383.705789	-383.704845	-383.753033	31.654	
O	-0.0340354604	 1.3556888119	 0.3968122189	-0.414547
C	-0.0978847534	-0.0592967033	 0.4178905745	-0.06354
C	-1.2132181528	-0.4668608025	-0.5517569807	-0.32411
C	-1.3911599923	-1.9107813443	-0.6283123462	 0.050828
C	-1.5104212578	-3.1076591216	-0.6890939323	 0.05396
C	-1.690817224	-4.5519880755	-0.7116402204	-0.413014
C	-2.4517060367	-5.0608769283	 0.5147719676	 0.171382
O	-2.1937037635	-6.0875624971	 1.081091899	-0.230851
H	 0.6598977005	 1.6367858763	 0.9999490977	 0.290565
H	 0.8499206525	-0.5166081267	 0.0971120472	 0.099747
H	-0.3288108212	-0.4436189279	 1.4225617423	 0.09942
H	-2.1441121479	 0.0162119706	-0.2308948116	 0.139613
H	-0.9785182044	-0.0574756864	-1.5418387042	 0.140304
H	-2.2823666376	-4.8461962736	-1.5927306005	 0.154663
H	-0.7412000508	-5.0936556566	-0.7729767003	 0.152814
H	-3.2853615003	-4.4006799451	 0.839146189	 0.092765
11.8192	45.5975	80.8346	105.5272	137.0889	235.1547	279.8835	307.4605	362.8841	447.2021	471.6145	544.4363	722.614	793.2212	834.2073	1001.6718	1034.9306	1042.6068	1082.4662	1087.5463	1162.5848	1211.4772	1221.8511	1238.6361	1290.8129	1304.1783	1334.1644	1414.8015	1441.5052	1455.2166	1476.6188	1528.3425	1840.8389	2370.473	2899.5314	2984.2195	2998.8668	3015.1035	3032.2558	3069.6391	3078.2068	3834.7652
OCCC#CCC=O	OCCC#CCC=O	
InChI=1S/C6H8O2/c7-5-3-1-2-4-6-8/h5,8H,3-4,6H2	InChI=1S/C6H8O2/c7-5-3-1-2-4-6-8/h5,8H,3-4,6H2
