14
gdb 79386	3.45292	1.38017	1.12383	4.3584	66.52	-0.2589	-0.0126	0.2463	1031.8672	0.100227	-436.588915	-436.581723	-436.580779	-436.620604	27.578	
O	-0.0429749283	 1.5135802514	-0.0363503438	-0.434856
C	 0.0728866893	 0.1141879596	-0.0359413948	 0.099571
C	 0.0810136667	-0.598187203	 1.3365641604	-0.186371
C	-1.4598382361	-0.3900459669	 1.508888512	 0.060976
O	-1.7403229794	-1.7989205612	 1.7848383983	-0.34652
C	-0.7117573834	-1.8207049079	 0.7573631041	 0.409832
C	-0.2111827732	-3.0706385891	 0.2526871886	 0.165532
N	 0.2126291647	-4.05901904	-0.1712718215	-0.340855
C	-1.2870850401	-0.5938544333	-0.0320513026	-0.15685
H	 0.837889927	 1.8968714727	 0.0191668044	 0.293204
H	 0.8030433106	-0.2467188467	-0.7706073453	 0.094759
H	 0.8340373872	-0.6416269898	 2.1221788428	 0.105918
H	-2.0092839727	 0.368076962	 2.0577065783	 0.124785
H	-2.0693081824	-0.6259496376	-0.7879912708	 0.110873
115.8249	166.5841	231.3332	277.0118	337.2847	455.2395	491.7196	541.8396	591.2992	631.0509	752.9669	798.2581	809.1957	864.0772	913.011	925.7599	933.5346	999.4407	1047.0024	1072.4793	1121.9885	1130.2882	1154.2577	1166.9289	1200.8782	1243.3251	1253.9801	1300.7359	1341.0615	1441.7673	2356.5194	3033.9779	3137.6261	3148.3964	3182.8207	3825.2035
OC1C2C3OC2(C#N)C13	O[C@H]1[C@H]2[C@@H]3O[C@@]2(C#N)[C@H]13	
InChI=1S/C6H5NO2/c7-1-6-2-4(8)3(6)5(2)9-6/h2-5,8H	InChI=1S/C6H5NO2/c7-1-6-2-4(8)3(6)5(2)9-6/h2-5,8H/t2-,3+,4-,5-,6+
