19
gdb 109331	2.25118	1.35794	1.00556	3.602	78.78	-0.2278	-0.027	0.2008	1250.1717	0.157604	-423.038137	-423.028887	-423.027943	-423.073213	32.83	
C	-0.0004345693	 1.5944876859	 0.1523374294	-0.375942
C	-0.0185635429	 0.0762922411	-0.1016326241	-0.300919
C	-1.3888604954	-0.5292763287	-0.0249100301	 0.30507
C	-2.0877523821	-1.1317159845	-0.9844089364	-0.209299
C	-3.4235192881	-1.5811202246	-0.4700990502	-0.116232
O	-3.4907719717	-1.0682530963	 0.860990185	-0.251382
C	-2.2327136134	-0.5659814192	 1.2465762738	-0.064789
C	-1.5647900087	-1.4511036514	 2.3027703243	 0.151461
O	-1.9290601366	-2.556581128	 2.594775439	-0.234815
H	 1.0164971468	 1.9866764109	 0.0600818722	 0.120869
H	-0.6350251232	 2.1181374782	-0.5689279474	 0.127101
H	-0.3613224294	 1.8416257639	 1.1556877159	 0.121015
H	 0.401927279	-0.1334484147	-1.0908635949	 0.112583
H	 0.646870975	-0.4123877419	 0.6228453454	 0.11357
H	-1.7583448125	-1.2931965598	-2.0036286256	 0.105514
H	-4.2661774319	-1.1778413391	-1.0495247162	 0.110361
H	-3.5226515177	-2.6776067845	-0.4626488647	 0.118401
H	-2.355995922	 0.4345080937	 1.695610051	 0.099078
H	-0.6774312957	-0.978104601	 2.7887935535	 0.068354
47.8815	79.382	95.1855	169.5602	200.1289	252.0204	286.6398	298.6624	391.2018	532.6849	591.6975	729.3893	775.1382	787.5083	795.3195	830.3445	921.9728	944.2584	970.5708	1011.9046	1023.3444	1050.62	1065.3568	1098.6055	1148.7339	1194.2031	1202.669	1254.0242	1262.7963	1322.7276	1349.8089	1355.118	1380.7782	1411.0429	1415.7383	1482.5255	1498.5587	1506.6591	1517.82	1722.2241	1847.3102	2836.0799	2960.3361	2985.3419	3014.2675	3017.6913	3040.3796	3067.7189	3110.6542	3115.502	3210.081
CCC1=CCOC1C=O	CCC1=CCO[C@H]1C=O	
InChI=1S/C7H10O2/c1-2-6-3-4-9-7(6)5-8/h3,5,7H,2,4H2,1H3	InChI=1S/C7H10O2/c1-2-6-3-4-9-7(6)5-8/h3,5,7H,2,4H2,1H3/t7-/m0/s1
