19
gdb 95681	3.12512	1.23132	0.97405	4.4969	72.03	-0.2618	0.01	0.2718	1227.469	0.16002	-460.207502	-460.199102	-460.198158	-460.240639	31.825	
C	-0.0955613809	 1.6119077998	 0.065954058	-0.399217
C	-0.0949278805	 0.0907594584	 0.0184867794	 0.125022
C	 0.6520711035	-0.4613431903	-1.1985440683	-0.200328
C	 0.6754471564	-1.9992582017	-1.2860703281	-0.360429
C	 1.6459279774	-2.6732515698	-0.3263902956	 0.415004
O	 2.5658201306	-3.351082559	-0.692639998	-0.315024
O	 1.46423047	-2.4861049605	 1.0093613504	-0.219297
C	 0.3801897448	-1.7064302973	 1.5165106538	 0.020046
O	 0.4841870047	-0.3519505657	 1.2509007384	-0.237397
H	 0.9291784701	 1.9920675422	 0.1167679858	 0.132786
H	-0.5759851932	 2.0242212296	-0.8258109679	 0.119299
H	-0.6353607046	 1.9636166529	 0.9486009636	 0.128469
H	-1.1357669929	-0.2743858004	-0.0185918553	 0.072766
H	 0.1617678057	-0.0737656948	-2.0984830301	 0.110492
H	 1.6771909251	-0.0727878441	-1.2015266743	 0.122825
H	-0.3355910676	-2.3965963457	-1.1245951058	 0.120578
H	 0.9907242728	-2.3154194577	-2.2812055916	 0.136771
H	-0.5755730124	-2.1150828952	 1.1553077264	 0.095492
H	 0.454923911	-1.8348279408	 2.5974786591	 0.132144
74.0487	134.1937	209.1171	221.5287	286.9098	332.533	345.4021	393.2993	459.9033	503.3637	534.0948	654.0946	726.7853	746.5539	813.1809	892.9213	916.1423	956.5595	1026.7033	1054.6733	1068.0429	1097.0836	1120.9897	1149.8126	1177.0439	1216.8844	1226.6953	1299.3755	1317.1063	1335.0928	1356.5001	1390.4689	1400.1872	1412.7999	1454.7152	1475.5138	1478.2187	1485.8575	1500.5167	1512.8114	1847.4501	2954.5463	2991.1359	3028.6583	3037.4306	3047.3773	3082.3886	3120.6706	3121.2502	3124.4539	3127.7718
CC1CCC(=O)OCO1	C[C@H]1CCC(=O)OCO1	
InChI=1S/C6H10O3/c1-5-2-3-6(7)9-4-8-5/h5H,2-4H2,1H3	InChI=1S/C6H10O3/c1-5-2-3-6(7)9-4-8-5/h5H,2-4H2,1H3/t5-/m0/s1
