20
gdb 92993	2.86905	1.22399	0.96333	3.7127	82.02	-0.2414	0.0073	0.2486	1257.9562	0.171825	-403.191922	-403.182951	-403.182007	-403.226212	33.34	
C	-0.077460485	 1.4253567989	 0.3310963819	-0.408412
C	 0.1207276818	-0.0768148073	 0.1488854672	 0.021031
C	 0.7104404232	-0.5042453727	-1.2210907233	-0.271034
C	 1.5247476279	-1.7287394598	-0.8830447473	-0.060834
C	 1.6793898168	-1.887867827	 0.4308113687	-0.104255
C	 1.0351349444	-0.7681278105	 1.2158426095	-0.008992
N	 2.0676921977	 0.0857587288	 1.8051893775	-0.277192
C	 1.9441685809	 0.6699075812	 3.0257904457	 0.153625
O	 0.9704746681	 0.5880603769	 3.7459667932	-0.328903
H	 0.8673181214	 1.9676500259	 0.2210537808	 0.105303
H	-0.7752522208	 1.8165381795	-0.4164542643	 0.110538
H	-0.4775262586	 1.6524545069	 1.3236535128	 0.139564
H	-0.8544085642	-0.5687095217	 0.2441514876	 0.08715
H	-0.0732113469	-0.7082250531	-1.9595309477	 0.108675
H	 1.3447214744	 0.2791780958	-1.6619620649	 0.102704
H	 1.9370093077	-2.3862391799	-1.6412358797	 0.098527
H	 2.242789086	-2.6780633994	 0.9144422503	 0.100233
H	 0.4380700737	-1.1122267774	 2.0639760661	 0.115045
H	 2.9243337792	 0.223752258	 1.2918677473	 0.243918
H	 2.8531881523	 1.2412901171	 3.3027359085	 0.073308
49.0993	77.1602	184.2873	197.333	239.303	255.0922	298.4795	367.2705	474.581	521.3126	551.5386	653.8036	725.9668	744.1294	776.0245	848.5406	927.8404	934.319	978.7983	986.4814	988.7927	1016.5518	1032.4552	1076.6429	1119.3907	1134.9346	1157.0094	1192.3812	1202.3099	1274.7673	1307.6207	1325.753	1361.8322	1374.6546	1380.0614	1412.9025	1427.4636	1485.9848	1495.1233	1501.7093	1511.3587	1683.5383	1797.7522	2927.4932	3000.5588	3031.3059	3035.3084	3058.9328	3087.7776	3100.8414	3113.15	3180.8834	3206.8116	3627.1548
CC1CC=CC1NC=O	C[C@H]1CC=C[C@H]1NC=O	
InChI=1S/C7H11NO/c1-6-3-2-4-7(6)8-5-9/h2,4-7H,3H2,1H3,(H,8,9)	InChI=1S/C7H11NO/c1-6-3-2-4-7(6)8-5-9/h2,4-7H,3H2,1H3,(H,8,9)/t6-,7+/m0/s1
