18
gdb 81102	2.41473	1.71497	1.24955	2.4848	76.65	-0.2291	-0.0357	0.1935	1043.5266	0.147593	-401.906453	-401.898482	-401.897538	-401.938928	30.937	
C	-0.3157876973	 1.461242566	-0.0523583335	-0.433595
C	-0.0286295104	-0.025190906	 0.0688283428	 0.026826
C	 1.1806557107	-0.6075777923	-0.7572916164	-0.072208
N	 2.058956962	-0.0063816705	 0.3059286156	-0.338587
C	 0.9765603991	-0.514563134	 1.217628902	 0.200193
C	 0.8939840586	 0.0192182433	 2.6129266068	 0.038802
O	 0.3813557988	-0.5756335739	 3.5289400967	-0.254123
C	 0.9471957409	-2.0312127155	 0.9622659205	-0.137927
C	 1.098264769	-2.0956620609	-0.3636833695	-0.105436
H	 0.6014455251	 2.0499141413	 0.0012708409	 0.142282
H	-0.807407841	 1.6690859346	-1.0095763655	 0.119067
H	-0.9969784458	 1.793292945	 0.7389107982	 0.122152
H	-0.9422468267	-0.619189123	 0.0199031528	 0.086962
H	 1.3726163509	-0.3300290787	-1.79428464	 0.072111
H	 2.921919709	-0.5400802422	 0.4238727991	 0.206225
H	 1.3297250632	 1.0339253367	 2.744314431	 0.087803
H	 0.7955742003	-2.7943259278	 1.7104667766	 0.127821
H	 1.1089799335	-2.9480741318	-1.0278316781	 0.111627
75.5074	179.5726	202.6168	231.3459	276.3855	320.1076	468.2638	484.07	539.5488	586.9072	686.6062	708.9004	735.1231	799.9243	838.4467	846.145	893.0288	914.3064	975.6442	1009.4503	1030.9114	1049.5291	1076.3791	1090.4243	1117.5588	1138.6703	1206.8779	1218.7066	1253.5817	1282.7949	1310.65	1337.603	1371.1329	1399.006	1410.6936	1488.3061	1504.2374	1609.8788	1817.44	2896.2227	3033.2074	3089.0692	3102.5127	3113.4776	3141.236	3229.5587	3261.2884	3433.1083
CC1C2NC1(C=O)C=C2	C[C@H]1[C@H]2N[C@]1(C=O)C=C2	
InChI=1S/C7H9NO/c1-5-6-2-3-7(5,4-9)8-6/h2-6,8H,1H3	InChI=1S/C7H9NO/c1-5-6-2-3-7(5,4-9)8-6/h2-6,8H,1H3/t5-,6-,7-/m0/s1
