20
gdb 122068	1.89632	1.04583	0.76435	4.155	76.7	-0.2723	0.0128	0.2851	1550.9543	0.168743	-440.287931	-440.277314	-440.276369	-440.324864	36.862	
C	-0.0054231797	 1.5035698243	 0.1799637013	-0.394429
C	 0.1051889256	-0.0156719401	 0.0419839553	-0.189927
C	 0.7395051731	-0.4329054296	-1.2919099116	-0.007746
O	 2.0613639555	 0.0568580697	-1.3307499861	-0.259608
C	 2.7080192679	-0.0368340192	-2.5995238136	-0.091951
C	 4.1253398868	 0.4733993591	-2.3984435098	-0.058046
O	 4.8433397039	-0.3225428542	-1.4797833668	-0.416028
C	 0.7104249391	-1.9056427379	-1.4527772124	 0.270193
N	 0.6890761994	-3.0542720782	-1.5768348842	-0.320367
H	 0.9774227107	 1.9738387676	 0.1024845493	 0.138053
H	-0.6471834854	 1.9266970961	-0.6006875877	 0.1185
H	-0.4387785665	 1.7693592015	 1.1478971765	 0.124298
H	 0.7142794875	-0.4348460166	 0.8498054284	 0.12652
H	-0.8819362329	-0.4846593384	 0.1096791471	 0.123519
H	 0.155173391	-0.004799413	-2.1233969989	 0.113669
H	 2.7268868439	-1.0818407835	-2.9381255648	 0.126948
H	 2.172306798	 0.5697484987	-3.3461874052	 0.095466
H	 4.6632477066	 0.4327888434	-3.3511221047	 0.115758
H	 4.0839584825	 1.5271441067	-2.0788191037	 0.094634
H	 4.2889815632	-0.3979215564	-0.6948242584	 0.290546
37.3075	72.2408	98.7837	125.2344	147.6257	189.6772	236.2144	257.7687	322.9171	334.4361	409.4991	446.8671	502.3991	543.0401	623.533	768.2945	860.9054	878.8213	911.89	966.7379	997.0183	1054.9353	1085.9114	1108.0725	1133.3949	1145.6921	1160.6251	1237.9135	1266.9958	1288.6198	1318.8193	1357.0151	1383.3298	1387.9244	1410.0993	1419.1267	1440.4576	1477.9021	1495.7389	1497.9552	1505.1484	1509.022	2353.7974	2971.751	2979.0008	2987.1057	3042.0616	3044.3158	3051.8693	3082.4734	3090.2025	3111.9488	3133.6098	3805.4835
CCC(OCCO)C#N	CC[C@@H](OCCO)C#N	
InChI=1S/C6H11NO2/c1-2-6(5-7)9-4-3-8/h6,8H,2-4H2,1H3	InChI=1S/C6H11NO2/c1-2-6(5-7)9-4-3-8/h6,8H,2-4H2,1H3/t6-/m1/s1
