17
gdb 127036	3.23171	1.10235	0.8305	0.8434	71.76	-0.1972	0.0343	0.2315	1356.9773	0.135868	-455.154182	-455.144985	-455.144041	-455.188699	32.851	
C	-0.0001842074	 1.4749620582	-0.0924808553	-0.393817
C	 0.0135106306	-0.0406570142	-0.0359322839	-0.035221
O	 0.6539672892	-0.5166159404	-1.2254519519	-0.297815
C	 0.7570483785	-1.8555474649	-1.3492318182	 0.345055
N	 0.3167851898	-2.7406735439	-0.4681458909	-0.318301
N	 0.6419137099	-3.9325926914	-1.0207896167	-0.220642
C	 1.2731150447	-3.8162889006	-2.2234660629	-0.102572
C	 1.3667801	-2.4665576042	-2.4712154641	 0.155061
O	 1.92002965	-1.8496125339	-3.550550728	-0.454259
H	 1.0178870138	 1.871748437	-0.1433099473	 0.126953
H	-0.551473726	 1.8268333742	-0.9692649244	 0.126948
H	-0.4829587362	 1.8771624654	 0.8029730229	 0.121483
H	 0.5612010499	-0.4095568258	 0.8396062996	 0.116327
H	-1.0006905341	-0.4544294445	 0.0166396812	 0.116389
H	 0.4056915827	-4.7744668051	-0.5289892301	 0.272804
H	 1.5983190238	-4.6697935485	-2.7944540677	 0.137687
H	 1.8204022809	-0.9005615175	-3.4156473923	 0.303919
63.3312	78.434	129.1642	232.4308	244.8934	275.4426	282.1551	299.6705	348.6979	405.7363	557.0227	636.7581	653.7473	712.6419	761.9467	807.1847	813.0933	917.0099	944.9842	1058.4127	1074.4738	1130.1036	1179.5896	1184.5249	1226.8454	1279.6545	1290.4188	1346.5048	1396.1227	1419.5164	1462.3924	1484.6707	1493.9959	1498.9572	1522.3072	1579.1191	1672.8579	3028.0666	3045.1236	3063.5346	3120.7668	3121.6589	3274.8843	3705.9419	3814.5355
CCOC1=NNC=C1O	CCOc1n[nH]cc1O	
InChI=1S/C5H8N2O2/c1-2-9-5-4(8)3-6-7-5/h3,8H,2H2,1H3,(H,6,7)	InChI=1S/C5H8N2O2/c1-2-9-5-4(8)3-6-7-5/h3,8H,2H2,1H3,(H,6,7)
