27
gdb 100057	2.81715	1.00527	0.9149	0.0744	95.63	-0.2781	0.0766	0.3547	1492.5418	0.251219	-353.557697	-353.546924	-353.54598	-353.593115	41.449	
C	-0.7515677138	 1.1214113441	 0.2411824858	-0.404878
C	-0.3410528129	-0.2923407878	-0.1879471384	-0.176621
C	 0.8048526715	-0.4079758656	-1.2281228272	 0.238161
C	 0.3922509761	 0.2377504159	-2.5655154633	-0.412896
C	 2.0755979483	 0.286982445	-0.7045296779	-0.424747
C	 1.0337016953	-1.9137745407	-1.4831484155	 0.077093
C	 2.1482163915	-2.4259505506	-2.4433694175	-0.252778
C	 2.3231894917	-3.6549582194	-1.5115296315	-0.215622
C	 1.6101612074	-2.8583767567	-0.3864245456	-0.246575
H	 0.0680976282	 1.6562013879	 0.7302971782	 0.116418
H	-1.0871142767	 1.7274927414	-0.6061443666	 0.115813
H	-1.5802373385	 1.0740239115	 0.9551006746	 0.110635
H	-0.0503095353	-0.8584676488	 0.7064840949	 0.09391
H	-1.2221967839	-0.8062251189	-0.5951826918	 0.086524
H	 0.2132991344	 1.3123272339	-2.4608951608	 0.109018
H	 1.1766231877	 0.1098014773	-3.3190253727	 0.112524
H	-0.5239087444	-0.2179586759	-2.9584590109	 0.104617
H	 2.3676579652	-0.0842166072	 0.283131191	 0.109731
H	 2.9225745186	 0.1408800579	-1.3819625239	 0.110273
H	 1.9215816874	 1.3664476233	-0.6158449723	 0.112016
H	 0.0782467693	-2.3345183238	-1.8236802223	 0.062122
H	 1.8759007715	-2.6083095064	-3.4859411495	 0.092226
H	 3.0350322864	-1.7856159668	-2.4258318612	 0.099322
H	 1.7232008071	-4.5055909822	-1.8477172562	 0.099602
H	 3.3403550343	-4.0044579744	-1.3191103577	 0.093036
H	 2.3328891774	-2.3476844192	 0.2566168498	 0.099184
H	 0.9008755361	-3.393978634	 0.2495186182	 0.09189
63.5211	89.3431	131.1559	171.1559	209.6924	251.1587	270.6471	277.5918	318.054	332.3477	366.3936	376.3339	445.9411	525.2019	616.3661	718.4255	783.0618	786.3673	791.9407	885.647	910.3873	936.2692	937.7664	956.0613	966.916	993.2842	1015.3086	1027.1353	1043.2471	1063.8284	1090.0611	1131.1248	1197.2578	1208.0396	1233.2167	1243.8613	1254.7256	1260.4979	1264.825	1282.0437	1299.8117	1324.5293	1370.6574	1379.7908	1397.6127	1410.7625	1423.2684	1476.7599	1480.1504	1483.445	1487.7895	1491.4204	1507.2212	1509.0926	1510.9863	1512.3189	1517.0347	3006.5036	3012.5877	3026.1749	3036.7468	3040.6632	3043.3668	3053.5191	3054.3419	3061.714	3091.6074	3094.2054	3096.6649	3099.649	3101.347	3105.824	3107.4297	3112.391	3118.592
CCC(C)(C)C1CCC1	CCC(C)(C)C1CCC1	
InChI=1S/C9H18/c1-4-9(2,3)8-6-5-7-8/h8H,4-7H2,1-3H3	InChI=1S/C9H18/c1-4-9(2,3)8-6-5-7-8/h8H,4-7H2,1-3H3
