14
gdb 31218	2.29456	1.68278	0.99335	4.0623	70.3	-0.2492	-0.0331	0.2161	1105.2477	0.101631	-436.722753	-436.714756	-436.713812	-436.756202	28.617	
O	 0.2229087598	 1.1553927245	-0.5800283729	-0.400581
C	-0.0708089414	 0.0876335817	 0.2913901998	-0.197126
C	-1.4425336279	-0.4835664628	 0.0806663357	 0.27576
C	-2.2102774666	-0.6626997015	-1.0424060347	 0.083897
C	-3.4332341357	-1.2889237837	-0.6072935757	-0.288302
C	-3.3094517286	-1.4399902816	 0.7309351594	-0.007637
O	-2.1054313561	-0.9522311605	 1.1577569973	-0.168499
C	-1.8248828035	-0.3109167758	-2.3581141924	 0.1895
N	-1.4798707219	-0.0303117942	-3.4285347914	-0.357638
H	 0.298578571	 0.8189240379	-1.4801534397	 0.30651
H	 0.6784786631	-0.7178246828	 0.2211402646	 0.123458
H	-0.0170601204	 0.4806274886	 1.3116355838	 0.14448
H	-4.269955933	-1.5710518346	-1.2249338771	 0.141169
H	-3.9467881088	-1.845511115	 1.4981312335	 0.155007
42.9087	122.9445	168.8695	197.6684	273.8035	367.4231	410.3331	516.7111	550.0589	597.5647	622.0715	688.339	738.2956	760.2959	840.8175	912.0784	979.0902	1060.0979	1090.5793	1103.6902	1162.2442	1200.5151	1265.9771	1284.9805	1380.9003	1406.3535	1441.0796	1487.8374	1547.9391	1618.1599	2340.4969	2972.2602	3082.6298	3272.5615	3298.139	3805.0138
OCC1=C(C=CO1)C#N	OCc1c(cco1)C#N	
InChI=1S/C6H5NO2/c7-3-5-1-2-9-6(5)4-8/h1-2,8H,4H2	InChI=1S/C6H5NO2/c7-3-5-1-2-9-6(5)4-8/h1-2,8H,4H2
