22
gdb 86669	2.34821	1.25643	1.03416	4.5106	84.22	-0.2351	0.0334	0.2685	1287.6103	0.19225	-404.375962	-404.365708	-404.364764	-404.411532	37.481	
C	-0.5877703792	 1.3882856146	-0.0416427592	-0.415118
C	 0.0775010526	 0.0206526025	-0.0721657267	-0.038162
C	 1.4308859366	-0.0952095365	-0.8338560868	-0.18614
N	 2.0223740869	-0.6627558721	 0.3717891902	-0.052658
C	 3.2665481807	-1.140583945	 0.5770022841	 0.11907
O	 4.1431816108	-1.1683005967	-0.2656884563	-0.339285
C	 0.813694955	-0.5233220031	 1.2167709841	 0.290875
C	 0.9965573758	 0.4709625876	 2.3654415599	-0.42849
C	 0.2632374071	-1.8561710528	 1.7268092029	-0.429256
H	 0.1060232878	 2.1762520052	 0.2661920583	 0.123137
H	-0.9586006456	 1.6489442672	-1.0386962763	 0.123608
H	-1.4433389221	 1.4052003053	 0.6416440259	 0.120173
H	-0.6401428217	-0.7238249584	-0.4280694613	 0.080311
H	 1.4512715873	-0.7665057146	-1.6977929816	 0.122629
H	 1.8772963254	 0.8623673892	-1.1274524544	 0.116139
H	 3.4074682608	-1.5150994585	 1.6120794056	 0.060944
H	 1.4349938766	 1.410395904	 2.0206182791	 0.124106
H	 0.0363681283	 0.6917537055	 2.8430113329	 0.121167
H	 1.6590688431	 0.0525504043	 3.1301790218	 0.121936
H	 0.9122516909	-2.2878501796	 2.4959175827	 0.12167
H	-0.727888025	-1.7108603027	 2.1705707915	 0.120653
H	 0.1727961379	-2.5791940455	 0.9112430338	 0.122692
41.6305	60.5731	162.0545	209.6737	221.48	240.5347	256.2149	293.1664	328.9148	341.2562	371.556	397.9196	478.078	579.0054	630.6141	750.4171	849.7428	882.4941	914.1962	932.9395	974.2618	997.9214	1034.1781	1043.1514	1095.9742	1129.6621	1145.8987	1177.607	1193.7936	1222.6308	1266.0377	1288.1525	1315.2506	1370.9304	1399.1034	1404.9596	1412.6689	1419.8369	1447.5329	1476.4694	1482.9633	1492.1327	1497.0658	1503.1353	1511.0831	1520.4156	1782.8519	2915.7225	3029.2489	3030.8883	3033.9803	3039.9751	3060.6062	3081.361	3097.1737	3098.6734	3105.7972	3108.7719	3113.6481	3124.2076
CC1CN(C=O)C1(C)C	C[C@H]1CN(C=O)C1(C)C	
InChI=1S/C7H13NO/c1-6-4-8(5-9)7(6,2)3/h5-6H,4H2,1-3H3	InChI=1S/C7H13NO/c1-6-4-8(5-9)7(6,2)3/h5-6H,4H2,1-3H3/t6-/m0/s1
