17
gdb 33043	4.55976	0.88599	0.76175	4.5779	74.03	-0.1968	0.0394	0.2362	1481.3176	0.135893	-455.155496	-455.146778	-455.145834	-455.189795	31.762	
C	 0.1479981008	 1.3822874913	 0.1809866578	-0.394087
C	-0.1017666891	-0.0403835185	-0.3038814596	-0.13403
N	-1.3869546187	-0.5372481873	 0.2136294444	-0.409181
C	-1.6975402758	-1.8629261083	 0.0321699915	 0.388216
C	-2.7784910241	-2.5358246654	-0.3710446604	-0.182372
O	-2.5360218514	-3.9039529177	-0.1967321797	-0.222587
C	-1.2583277372	-4.0232429457	 0.2637362236	 0.506933
N	-0.6044825754	-5.0655418961	 0.5212158537	-0.583059
O	-0.7317795124	-2.7697733105	 0.4266959669	-0.217299
H	 1.1116080597	 1.7449612826	-0.1872084711	 0.12757
H	-0.6248006784	 2.0691974297	-0.1834435546	 0.114741
H	 0.1522309386	 1.4239009844	 1.2735545698	 0.13622
H	-0.0685560991	-0.0820904264	-1.4040021386	 0.101229
H	 0.6768625106	-0.7110995234	 0.0668889944	 0.147671
H	-2.1649348181	 0.0636423965	-0.0260330451	 0.241764
H	-3.7394899538	-2.24669682	-0.7525608131	 0.144675
H	-1.167523776	-5.8904748652	 0.3313643898	 0.233598
56.1785	78.0585	113.8287	190.5022	252.6244	329.8386	343.8271	388.1297	518.1731	609.6503	626.5074	659.1362	702.0639	733.276	771.6118	782.5285	816.4976	912.2103	934.6986	1009.5371	1016.5169	1066.5408	1098.9441	1133.3189	1162.205	1207.1319	1295.019	1322.865	1377.1009	1383.1112	1415.6294	1473.7279	1496.1223	1498.5633	1520.7933	1748.2753	1816.4497	2980.4168	3035.7958	3093.7289	3113.986	3127.0313	3315.8177	3545.4523	3576.7327
CCNC1=COC(=N)O1	CCNC1=CO[C@H]([NH])O1	
InChI=1S/C5H8N2O2/c1-2-7-4-3-8-5(6)9-4/h3,6-7H,2H2,1H3	InChI=1S/C5H9N2O2/c1-2-7-4-3-8-5(6)9-4/h3,5-7H,2H2,1H3/t5-/m0/s1
