20
gdb 112159	3.24061	1.10771	0.87967	3.0292	85.06	-0.2396	-0.0205	0.2191	1377.4596	0.17062	-403.19412	-403.184815	-403.183871	-403.228372	34.317	
C	 0.0315035212	 1.5675758623	 0.0598005338	-0.383712
C	-0.0830139658	 0.0475750695	-0.0768935279	-0.179599
C	 0.7037785905	-0.5074262209	-1.2682551854	 0.060784
O	 2.1075700323	-0.2177861997	-1.1142877264	-0.253361
C	 2.8283890568	-1.3829840646	-1.1519952235	 0.332534
N	 4.0878511493	-1.4716452692	-1.0450664858	-0.549262
C	 1.8923916678	-2.5095717298	-1.3398701288	 0.26599
C	 2.367735338	-3.9209548022	-1.4170562794	-0.486983
C	 0.6596526188	-2.0015012728	-1.415236329	-0.227344
H	 1.0753388037	 1.8664607601	 0.1860423487	 0.137703
H	-0.3585993039	 2.0754175316	-0.829280975	 0.114908
H	-0.5341672016	 1.9259933371	 0.9246595463	 0.115247
H	 0.2760984904	-0.4481060547	 0.8324344074	 0.108471
H	-1.1333671321	-0.2439068636	-0.2039105747	 0.099886
H	 0.3663983965	-0.0030176258	-2.1870320946	 0.097397
H	 4.5059502916	-0.5483270016	-0.9226507184	 0.220232
H	 3.0782777147	-4.0400236418	-2.2415514224	 0.147935
H	 2.9093137183	-4.1924877521	-0.5049960355	 0.147559
H	 1.5383504075	-4.6178796257	-1.5584980883	 0.118774
H	-0.2647841839	-2.5482171462	-1.5526351512	 0.11284
85.1012	116.7857	123.8991	138.7914	224.1252	257.8379	269.2024	351.9965	381.6364	475.248	525.4072	613.4013	707.2203	744.4	791.8139	815.0397	851.6592	876.4046	895.8665	962.1332	993.9791	1033.4397	1049.123	1065.7822	1069.8774	1115.0477	1142.2119	1201.4785	1248.9528	1284.6942	1309.9132	1345.5036	1382.983	1392.8169	1411.3633	1415.7697	1471.2435	1476.6791	1484.7246	1496.8639	1508.2901	1714.1764	1753.5625	2986.7252	3028.8349	3038.4098	3041.7924	3070.0779	3098.0203	3105.5529	3124.3372	3127.0439	3215.7217	3480.6163
CCC1OC(=N)C(C)=C1	CC[C@H]1OC(=C(C)[CH]1)[NH]	
InChI=1S/C7H11NO/c1-3-6-4-5(2)7(8)9-6/h4,6,8H,3H2,1-2H3	InChI=1S/C7H11NO/c1-3-6-4-5(2)7(8)9-6/h4,6,8H,3H2,1-2H3/t6-/m1/s1
