19
gdb 29905	4.28253	1.00497	0.87488	3.4888	83.71	-0.2039	0.0315	0.2354	1368.7353	0.160784	-382.096531	-382.087898	-382.086953	-382.131757	31.473	
C	-0.1632480542	 1.4648562344	-0.0441191754	-0.33691
N	-0.0529596494	 0.0220022047	-0.0076952847	 0.024818
C	 0.3618659361	-0.791908676	-1.0165077639	-0.007107
N	 0.3514914999	-2.0596130677	-0.6712268558	-0.333536
C	-0.0934736396	-2.0843496389	 0.6340559808	 0.290765
C	-0.348714748	-0.8004530022	 1.0603204688	-0.234906
C	-0.2303021905	-3.3680058579	 1.3518728716	-0.083678
C	 0.0634308253	-3.478882894	 2.8344453036	-0.264542
C	-1.3516201779	-3.602084077	 2.3442364434	-0.264365
H	 0.4825843633	 1.9269492917	 0.7093004726	 0.143336
H	 0.1445455005	 1.8191011684	-1.029812409	 0.145032
H	-1.194989325	 1.7842255984	 0.1341745529	 0.14333
H	 0.6576984597	-0.3972756533	-1.9780395223	 0.122035
H	-0.7030494875	-0.3967214736	 1.9947865116	 0.119322
H	 0.0562091608	-4.2133283938	 0.7366796461	 0.094542
H	 0.5687813116	-4.3705247353	 3.1894093816	 0.112088
H	 0.3507964272	-2.5685817285	 3.3501643288	 0.108827
H	-2.0313248645	-2.7758861201	 2.5247394931	 0.108856
H	-1.8230382779	-4.5787634191	 2.3608372062	 0.112094
14.9216	80.2459	129.3877	148.8664	227.1528	328.2548	419.8046	428.1688	584.8245	634.5768	690.4844	719.3909	739.4761	790.1628	811.2928	819.9166	913.7641	915.4012	988.8251	1056.3266	1060.1421	1072.2229	1073.1663	1089.0381	1138.1183	1151.3185	1188.7774	1202.5625	1220.9846	1238.7107	1276.5693	1384.6081	1402.494	1440.4199	1458.0604	1468.6527	1481.3739	1500.7953	1520.4367	1538.1292	1592.9827	3036.9354	3096.307	3127.0441	3131.5282	3134.994	3176.9299	3206.2519	3223.4311	3239.4288	3262.2432
CN1C=NC(=C1)C1CC1	Cn1cnc(c1)C1CC1	
InChI=1S/C7H10N2/c1-9-4-7(8-5-9)6-2-3-6/h4-6H,2-3H2,1H3	InChI=1S/C7H10N2/c1-9-4-7(8-5-9)6-2-3-6/h4-6H,2-3H2,1H3
