14
gdb 53988	1.82789	1.5099	1.42445	2.9064	63.69	-0.2864	-0.0841	0.2023	1038.7302	0.096176	-473.850026	-473.840528	-473.839584	-473.884708	32.778	
C	-0.7966814	 0.3171371903	 0.7251920449	-0.502251
C	 0.3360966354	 0.1429047923	-0.2380264243	 0.363567
O	 1.4200980576	 0.664791576	-0.1494793983	-0.301953
C	 0.1256237319	-0.7924704249	-1.4887437202	 0.04999
O	 1.2322822176	-0.7018115585	-2.325568615	-0.438403
C	 0.0038195925	-2.2669752384	-0.9863101654	 0.117227
O	-0.8770845187	-2.6835494819	-0.2928190446	-0.214659
C	-1.1158085996	-0.4066313536	-2.1779199906	 0.275306
N	-2.0955738141	-0.1000609897	-2.7081865795	-0.323181
H	-0.4362551857	 0.7894495356	 1.6392307403	 0.158426
H	-1.5574975865	 0.9546297562	 0.2601873106	 0.185031
H	-1.2743414369	-0.6442332224	 0.932406446	 0.18628
H	 1.834040895	-0.0743395809	-1.8828205417	 0.309046
H	 0.8595837015	-2.8725763102	-1.3464123421	 0.135574
72.5689	87.9765	133.8872	152.5342	174.1485	209.1064	311.1197	333.105	389.0423	449.8515	489.504	518.2581	567.5822	594.3648	664.7874	708.2262	857.5665	982.7525	1009.1369	1040.5267	1106.989	1166.6526	1203.4362	1363.1083	1392.9629	1405.0723	1459.6959	1468.6149	1816.115	1843.9325	2353.9345	2947.6675	3048.7806	3116.476	3165.6141	3611.356
CC(=O)C(O)(C=O)C#N	CC(=O)[C@@](O)(C=O)C#N	
InChI=1S/C5H5NO3/c1-4(8)5(9,2-6)3-7/h3,9H,1H3	InChI=1S/C5H5NO3/c1-4(8)5(9,2-6)3-7/h3,9H,1H3/t5-/m0/s1
