19
gdb 108796	3.16472	1.04045	0.82033	3.2713	78.58	-0.2371	-0.0141	0.223	1393.89	0.157524	-423.057704	-423.048224	-423.04728	-423.092559	34.266	
C	-0.1511201381	 1.5984863329	 0.062010739	-0.388921
C	 0.0075832348	 0.0723933684	-0.0246634023	-0.148028
C	 0.7458924629	-0.4472255123	-1.2307256067	-0.162006
C	 1.7874598147	-1.2235400217	-0.9195310324	 0.283262
C	 2.7176303521	-1.895271413	-1.8764962093	-0.169567
O	 2.3477287395	-1.5830207144	-3.2056457191	-0.412899
C	 1.9522724747	-1.3831158743	 0.5706485586	-0.430709
C	 0.8425955666	-0.4868673937	 1.1439120163	 0.399636
O	 0.6676903163	-0.2420473808	 2.3087692654	-0.313652
H	 0.8170409847	 2.0989362494	-0.0395492315	 0.118536
H	-0.8078583453	 1.9678730417	-0.7310360107	 0.116322
H	-0.5802549373	 1.8735275308	 1.0291793154	 0.137216
H	-0.9957634317	-0.3756924959	 0.048057833	 0.106695
H	 0.4551773857	-0.2108920728	-2.2465304595	 0.113482
H	 3.7522496268	-1.5737700224	-1.6583389326	 0.097074
H	 2.6945350325	-2.9853392847	-1.6959207429	 0.096711
H	 2.9580233315	-2.0282358607	-3.7997164598	 0.291701
H	 1.8124442513	-2.4160897018	 0.9191639047	 0.132882
H	 2.9315934884	-1.0655326247	 0.9521066143	 0.132263
52.1772	93.1003	137.8205	178.3283	207.3183	227.057	242.8272	363.2903	373.8816	451.2825	500.9912	579.4983	626.4828	673.688	741.8979	844.1528	893.6497	923.8764	932.939	1012.271	1030.2072	1067.9512	1083.8663	1102.1771	1130.045	1168.0904	1179.5641	1215.2333	1252.2278	1270.6695	1287.7456	1313.3845	1343.0532	1400.9971	1445.9847	1468.0955	1494.0694	1499.2851	1506.0803	1716.6073	1849.0185	2936.4951	2948.0532	2986.2962	3016.0326	3039.4378	3045.8128	3109.7808	3123.2402	3217.1029	3842.0499
CC1C=C(CO)CC1=O	C[C@H]1C=C(CO)CC1=O	
InChI=1S/C7H10O2/c1-5-2-6(4-8)3-7(5)9/h2,5,8H,3-4H2,1H3	InChI=1S/C7H10O2/c1-5-2-6(4-8)3-7(5)9/h2,5,8H,3-4H2,1H3/t5-/m0/s1
