19
gdb 38128	2.75635	2.05042	1.8105	1.5998	77.6	-0.2358	0.007	0.2429	866.2223	0.163948	-385.882447	-385.876336	-385.875391	-385.912442	26.825	
C	-0.0253606267	 1.5472576491	 0.0385951857	-0.235414
C	 1.5359793437	 1.4680701482	 0.0138228622	-0.077117
C	 1.9715340962	 1.2406778857	 1.4448748281	-0.071439
C	 1.3974563975	 0.2277612355	 2.0960431548	-0.081069
C	 0.5191480516	-0.700786919	 1.2771314543	 0.051297
O	 1.34858414	-1.7512232358	 0.7498349845	-0.26711
C	 2.1579116309	-1.1479740317	-0.2710319656	-0.103098
C	 1.3693641835	 0.0840502734	-0.7329087347	-0.030822
C	 0.000220857	 0.0031841209	-0.005408869	-0.034277
H	-0.4846981451	 2.0459489174	 0.895361097	 0.095843
H	-0.4349106565	 1.9536496704	-0.8911528435	 0.096545
H	 2.0931583208	 2.2594248091	-0.4891998637	 0.060983
H	 2.6803633479	 1.9162942136	 1.9134751608	 0.090929
H	 1.6167129201	-0.0220655694	 3.1285066485	 0.093278
H	-0.2613377721	-1.1842748901	 1.868379151	 0.075279
H	 3.1460835414	-0.87876949	 0.1259270499	 0.094416
H	 2.2928552285	-1.8895878055	-1.0645316006	 0.101924
H	 1.3175379385	 0.2042916333	-1.8161600353	 0.073004
H	-0.832267997	-0.5419653851	-0.4541557043	 0.066849
253.5675	296.2201	361.7912	389.4981	500.2183	567.233	636.6048	689.9938	714.029	740.4686	773.3614	839.5131	880.908	911.2663	925.596	943.6561	956.6971	970.2047	978.9491	1009.0392	1037.7857	1048.1262	1075.5055	1088.9037	1104.7224	1122.8598	1168.2141	1195.5206	1241.9321	1245.6073	1263.1809	1289.6684	1300.2879	1318.1848	1331.6702	1355.8122	1375.7159	1394.1774	1491.2359	1508.5808	1686.1112	3011.417	3050.2355	3071.1341	3084.1473	3092.5418	3096.308	3104.4749	3109.6614	3167.7944	3194.4231
C1C2C=CC3OCC2C13	C1[C@H]2C=C[C@@H]3OC[C@H]2[C@H]13	
InChI=1S/C8H10O/c1-2-8-6-3-5(1)7(6)4-9-8/h1-2,5-8H,3-4H2	InChI=1S/C8H10O/c1-2-8-6-3-5(1)7(6)4-9-8/h1-2,5-8H,3-4H2/t5-,6+,7-,8+/m1/s1
