18
gdb 13853	3.92361	1.54256	1.33269	3.1321	67.76	-0.2308	-0.01	0.2208	985.1733	0.1536	-384.966453	-384.958201	-384.957256	-385.000113	29.342	
C	-0.0436344343	 1.3668889545	 0.1610999837	-0.486265
C	-0.0891793387	-0.1387111895	-0.0268100262	 0.367464
O	-0.0891960548	-0.9131515085	 0.8995630214	-0.296773
C	-0.1043399306	-0.6299930037	-1.4814143013	 0.030551
C	 1.3614658418	-0.7428270525	-2.0186349273	-0.260369
C	 1.4454182675	-2.2081767684	-2.4922924592	-0.208587
C	 0.3537438139	-2.8813949052	-1.6563487695	-0.079748
O	-0.6877520133	-1.9126477826	-1.5904385574	-0.241503
H	 0.7122264498	 1.8230093009	-0.4879705941	 0.135945
H	-1.0098129723	 1.7988130136	-0.1263443037	 0.146559
H	 0.1625184536	 1.6087083118	 1.2043140416	 0.144283
H	-0.7023605136	 0.0598307139	-2.0893962643	 0.084713
H	 1.5592067782	-0.0261754896	-2.8179138973	 0.112084
H	 2.0840976542	-0.5548572736	-1.2185680309	 0.11581
H	 1.1986014464	-2.2811080858	-3.5556247176	 0.110485
H	 2.4350764585	-2.6453326922	-2.3394147192	 0.105945
H	-0.0609004254	-3.7838456191	-2.1130319069	 0.107156
H	 0.7140390389	-3.1262612341	-0.6480527815	 0.112251
52.7705	62.0518	126.8795	188.5139	244.0142	289.6361	364.7279	572.0586	594.003	605.5437	713.2619	779.2766	860.8462	907.2883	921.3492	931.0201	945.2563	988.4663	1014.8174	1034.6072	1111.4436	1132.6705	1187.6873	1205.688	1216.7093	1250.2989	1296.2394	1322.5654	1329.1442	1366.1554	1378.056	1394.7082	1462.7225	1474.7737	1485.1774	1500.0304	1522.9699	1822.67	3018.19	3029.0532	3035.6428	3056.5428	3058.5276	3093.641	3096.5997	3106.2548	3119.6655	3152.2864
CC(=O)C1CCCO1	CC(=O)[C@H]1CCCO1	
InChI=1S/C6H10O2/c1-5(7)6-3-2-4-8-6/h6H,2-4H2,1H3	InChI=1S/C6H10O2/c1-5(7)6-3-2-4-8-6/h6H,2-4H2,1H3/t6-/m1/s1
