18
gdb 87375	2.18224	1.63136	1.08619	2.3543	74.91	-0.2413	-0.0304	0.2109	1136.5581	0.145895	-439.065803	-439.056745	-439.055801	-439.099574	33.566	
C	-0.2691849141	 1.5175539591	 0.1412405231	-0.38054
C	-0.0984193523	 0.0195439377	 0.1526955403	-0.057618
N	 1.214310282	-0.5115875643	-0.2044557419	-0.382138
C	 0.7436506116	-0.6922868177	 1.1690532389	 0.233923
C	 1.4068543104	-0.2167673913	 2.469600121	 0.01044
O	 0.9372550083	 1.0337368514	 2.9159092862	-0.426226
C	 0.8383692576	-1.4907839593	 3.1912939776	-0.394725
C	 0.3743314989	-1.9975819293	 1.8125035902	 0.341974
O	-0.0347819078	-3.0407723948	 1.3809734837	-0.321662
H	 0.6337494748	 2.0127045336	 0.4993948028	 0.139355
H	-0.4806823045	 1.8581496805	-0.8782429075	 0.117413
H	-1.1018872591	 1.8158325202	 0.784514336	 0.125132
H	-0.9638496441	-0.5539668782	-0.179614771	 0.104568
H	 1.125530339	-1.4017935418	-0.6941116846	 0.245849
H	 2.501406787	-0.2354432628	 2.3933099252	 0.088736
H	 1.4176986766	 1.2686045121	 3.7158431023	 0.290323
H	 1.5447361903	-2.1325051127	 3.7230785501	 0.128262
H	-0.0026209447	-1.2458815424	 3.8474924176	 0.136934
75.3582	126.5569	153.2514	191.5256	245.047	268.4905	303.1344	328.7264	411.4786	482.4183	511.501	585.3312	620.8426	704.4392	766.2362	836.7596	876.3266	936.3325	974.5394	1023.8564	1042.6801	1065.8342	1084.3118	1094.1686	1134.0936	1160.5834	1187.6953	1209.0738	1244.4469	1255.1238	1291.1093	1348.2121	1413.1596	1418.5454	1436.5025	1465.6096	1480.8159	1498.4518	1873.4814	3024.5771	3042.5552	3061.2529	3108.4802	3109.5697	3124.5745	3153.5801	3467.2127	3822.6126
CC1NC11C(O)CC1=O	C[C@H]1N[C@]21[C@@H](O)CC2=O	
InChI=1S/C6H9NO2/c1-3-6(7-3)4(8)2-5(6)9/h3-4,7-8H,2H2,1H3	InChI=1S/C6H9NO2/c1-3-6(7-3)4(8)2-5(6)9/h3-4,7-8H,2H2,1H3/t3-,4+,6-/m1/s1
