22
gdb 61599	3.19199	0.81377	0.70429	4.261	87.02	-0.2791	0.04	0.3191	1651.1776	0.193192	-367.225824	-367.215537	-367.214593	-367.261717	37.421	
C	 0.1963204828	 1.6370579073	-0.0260377844	-0.386305
C	 0.0366618955	 0.1056855279	 0.0339651678	-0.142613
C	 0.6197568646	-0.6303466373	-1.2005153404	-0.207363
C	-0.1056385515	-0.2893016427	-2.486653412	-0.002867
C	 0.3764377184	 0.8037390061	-3.4167344307	-0.288435
C	 0.456587236	-0.6392846381	-3.8483536083	-0.01543
C	 1.7901273731	-1.3313519849	-4.0342603926	-0.405516
C	 0.6488660767	-0.4205294596	 1.2592919117	 0.262787
N	 1.1447232442	-0.8348922113	 2.2178376316	-0.325583
H	 1.2533095336	 1.9132674012	-0.0828169707	 0.13268
H	-0.3114788527	 2.0297211712	-0.9089107464	 0.136924
H	-0.2308453148	 2.1083676577	 0.8625548511	 0.13475
H	-1.0346128376	-0.1293085465	 0.092946375	 0.124612
H	 1.6852247401	-0.3899873962	-1.277015971	 0.113525
H	 0.5578900627	-1.7092438159	-1.0151223225	 0.119245
H	-1.186647999	-0.3895467641	-2.4057981359	 0.081991
H	-0.3521019861	 1.4577507694	-3.883871678	 0.111299
H	 1.3105731185	 1.2954658365	-3.1607551451	 0.110949
H	-0.2937581799	-0.9457602344	-4.5729519024	 0.086672
H	 2.5450435658	-0.966253229	-3.3321963953	 0.117825
H	 1.7030151188	-2.4146874202	-3.8949348832	 0.12047
H	 2.1753502207	-1.1574682272	-5.0447808083	 0.120382
47.1556	77.4463	103.4487	178.0496	199.5878	221.62	231.8378	281.6326	306.9098	369.1524	422.6701	478.2357	558.0178	580.3585	760.5735	805.643	830.938	868.3762	879.2265	913.0028	932.7982	963.6611	1022.7749	1056.7682	1074.2716	1103.6679	1110.6436	1129.5214	1152.8947	1178.8823	1199.95	1244.4551	1259.3071	1303.6775	1336.7193	1362.6307	1395.078	1410.1883	1421.5533	1432.3083	1480.5324	1491.4435	1494.0001	1497.4104	1501.4249	1507.8379	2354.697	3022.1294	3031.4783	3036.9814	3051.6867	3079.9911	3090.3304	3107.62	3116.5481	3122.5388	3123.7969	3138.5678	3140.3124	3206.672
CC(CC1CC1C)C#N	C[C@@H](C[C@H]1C[C@H]1C)C#N	
InChI=1S/C8H13N/c1-6(5-9)3-8-4-7(8)2/h6-8H,3-4H2,1-2H3	InChI=1S/C8H13N/c1-6(5-9)3-8-4-7(8)2/h6-8H,3-4H2,1-2H3/t6-,7+,8-/m0/s1
