14
gdb 5104	3.43507	2.17467	1.34292	4.4805	59.51	-0.179	0.0521	0.2311	850.4343	0.107184	-415.910643	-415.90251	-415.901566	-415.943133	28.641	
C	 0.0015248905	 1.4260595043	 0.0718283856	-0.341972
N	 0.0170545126	-0.0194282822	 0.0571661571	-0.140122
C	-0.0180773985	-0.7719096126	-1.1254375379	 0.460044
O	-0.0633460006	-0.344381987	-2.2650898229	-0.445263
N	 0.0108192568	-2.0758253893	-0.6849388218	-0.360298
C	 0.0645192466	-2.1451031318	 0.7220483548	-0.246323
C	 0.066232921	-0.8655008207	 1.1514182735	 0.357527
O	 0.1048200873	-0.2920138723	 2.3756455443	-0.429914
H	 0.9023599749	 1.8274898493	 0.5457612394	 0.136112
H	-0.0359482482	 1.7441458618	-0.9713899533	 0.168828
H	-0.875237247	 1.8081591628	 0.6034930759	 0.135984
H	 0.000714653	-2.8521868684	-1.3205777347	 0.26633
H	 0.0926772034	-3.074680464	 1.2605950278	 0.128866
H	 0.1313380082	-0.9843811901	 3.0437721723	 0.3102
109.5285	122.2673	135.9223	219.3792	257.1809	264.2848	351.283	438.5194	552.3897	589.945	602.7893	630.4382	749.1358	755.6931	792.9769	977.6927	1066.3547	1140.2256	1160.7145	1186.6967	1257.8564	1303.2859	1358.1896	1389.0831	1432.6849	1492.5066	1513.6406	1534.7681	1703.8114	1829.1019	3040.2671	3099.7551	3148.8965	3294.9095	3707.9814	3838.2304
CN1C(=O)NC=C1O	Cn1c(=O)[nH]cc1O	
InChI=1S/C4H6N2O2/c1-6-3(7)2-5-4(6)8/h2,7H,1H3,(H,5,8)	InChI=1S/C4H6N2O2/c1-6-3(7)2-5-4(6)8/h2,7H,1H3,(H,5,8)
