20
gdb 77166	3.33002	1.08618	0.87308	2.5275	81.12	-0.2312	-0.0214	0.2097	1345.7176	0.169193	-403.128588	-403.119479	-403.118535	-403.162816	33.874	
C	 0.115866341	 1.6002472948	-0.1488088442	-0.39992
C	 0.1067522946	 0.0851078395	-0.0299983342	-0.055368
N	 0.7445681406	-0.6894397238	-1.1327118572	-0.098045
C	 1.5005677016	-1.559963359	-0.1989746677	-0.289885
C	 1.1045529232	-0.5924033678	 0.9242205624	 0.378197
O	 1.4511218678	-0.4070185289	 2.051850198	-0.289606
C	-0.1029400273	-1.3186194809	-2.094340427	 0.055882
C	-0.4785907262	-0.5456886739	-3.331990138	-0.276378
C	 0.491361285	-1.6982304584	-3.4250163445	-0.280453
H	 1.1203080525	 1.9603399945	-0.3868081357	 0.125848
H	-0.5669881613	 1.9343057977	-0.9356427836	 0.124837
H	-0.2030300148	 2.0508128668	 0.7962620845	 0.132092
H	-0.9122443176	-0.2768337305	 0.197177306	 0.087801
H	 1.0590222155	-2.5584423809	-0.0465275302	 0.116052
H	 2.5673031387	-1.6743495665	-0.4168672611	 0.130639
H	-0.8662461992	-1.9955152865	-1.6925111112	 0.068843
H	-1.4781698288	-0.6732660565	-3.7316753158	 0.113644
H	-0.0706909902	 0.4534791852	-3.427261716	 0.121214
H	 1.5363239064	-1.4565557407	-3.579648263	 0.120765
H	 0.1607427786	-2.6204873742	-3.8888786114	 0.113841
71.4898	84.8699	153.7709	193.3432	197.3816	220.5433	347.2218	374.5932	399.2538	510.1747	575.2516	624.5645	740.1297	778.4028	795.3805	831.4461	897.9092	908.4513	949.5268	1009.8873	1027.4454	1055.0091	1070.548	1079.2293	1087.3972	1111.1086	1130.3555	1140.5549	1148.8831	1196.5696	1211.9716	1248.4258	1259.0672	1310.3174	1352.4889	1401.0385	1405.2535	1456.8082	1470.8631	1484.1479	1496.5435	1499.907	1916.1491	2945.2189	2978.635	3019.939	3041.3452	3072.0499	3113.758	3122.8677	3140.5629	3145.2694	3225.2026	3238.7029
CC1N(CC1=O)C1CC1	C[C@H]1N(CC1=O)C1CC1	
InChI=1S/C7H11NO/c1-5-7(9)4-8(5)6-2-3-6/h5-6H,2-4H2,1H3	InChI=1S/C7H11NO/c1-5-7(9)4-8(5)6-2-3-6/h5-6H,2-4H2,1H3/t5-/m1/s1
