21
gdb 90117	2.92259	1.68295	1.49059	1.4658	83.17	-0.2193	0.0745	0.2937	999.7416	0.184145	-387.001757	-386.994373	-386.993429	-387.032939	31.201	
C	-0.2123175916	 1.603598578	-0.0866047584	-0.403841
C	-0.0689854245	 0.0877395522	-0.0474542774	-0.024506
C	 1.0825437764	-0.5550728996	-0.9608027269	-0.335861
C	 1.8959291421	-0.7108525922	 0.342334859	 0.41665
C	 2.555604606	-1.5666732286	 1.4580461745	-0.330614
C	 1.6835895515	-0.5416961699	 2.3432119944	-0.124513
C	 2.4004296621	 0.7539023719	 2.0015089364	-0.078653
O	 2.5122360231	 0.5910057804	 0.5762408106	-0.306144
C	 0.6348512233	-0.6698707215	 1.1617862814	-0.014366
H	 0.7503618654	 2.1035226579	 0.0213042492	 0.142413
H	-0.6519517125	 1.9146579072	-1.0415091195	 0.108519
H	-0.882164281	 1.9493263186	 0.7086966406	 0.108742
H	-1.0482301926	-0.3598554154	-0.2426261101	 0.072648
H	 0.7636931471	-1.5067752483	-1.3911666332	 0.10413
H	 1.5269425584	 0.0732121322	-1.7362143006	 0.109918
H	 2.1838238234	-2.5896010203	 1.5176587006	 0.106909
H	 3.6420879231	-1.5312253637	 1.5797191077	 0.099727
H	 1.4387367914	-0.741606726	 3.3868886829	 0.073109
H	 1.8229592769	 1.6546888508	 2.2401353166	 0.098265
H	 3.3951668535	 0.8374693555	 2.4561820277	 0.097576
H	 0.1811295584	-1.661204829	 1.2266436343	 0.079893
179.0434	208.083	244.2837	328.7572	349.9176	394.4934	449.073	491.4091	601.1709	657.2027	725.635	765.3055	773.9762	829.7968	840.324	876.2925	901.075	942.6027	955.1349	975.8874	994.5319	1005.5798	1048.3804	1065.1992	1080.1441	1091.3141	1123.077	1167.2886	1169.6669	1179.3346	1205.9025	1218.1933	1222.599	1237.2972	1268.1942	1283.2477	1347.572	1363.222	1386.0882	1410.5854	1471.3591	1484.2817	1492.3269	1511.4089	1529.6566	3019.1241	3029.951	3049.1099	3056.8322	3060.7421	3067.0385	3079.6732	3084.9481	3114.0329	3129.4456	3144.7135	3148.7519
CC1CC23CC(CO2)C13	C[C@H]1C[C@@]23C[C@@H](CO2)[C@@H]13	
InChI=1S/C8H12O/c1-5-2-8-3-6(4-9-8)7(5)8/h5-7H,2-4H2,1H3	InChI=1S/C8H12O/c1-5-2-8-3-6(4-9-8)7(5)8/h5-7H,2-4H2,1H3/t5-,6-,7+,8-/m0/s1
