14
gdb 131422	4.90662	0.89152	0.85439	1.7724	69.8	-0.2534	-0.009	0.2444	1325.5653	0.099903	-436.647515	-436.639424	-436.63848	-436.681273	29.69	
O	 0.2561551513	 1.3667324188	 0.0148184333	-0.416734
C	 0.10034387	 0.0355532797	 0.0508692665	 0.478129
N	-0.2112527192	-0.6565489572	-1.0182957634	-0.255261
O	-0.278807616	-1.9832260202	-0.5765832188	-0.213588
C	-0.0057116127	-2.0241334899	 0.7379387848	 0.473497
C	-0.0275844128	-3.3750601615	 1.3897494643	-0.454567
C	-1.3740376596	-3.9261373652	 1.5307562389	 0.313463
C	-2.4802521476	-4.3769680413	 1.6497298774	-0.444654
C	 0.2488601477	-0.7763394868	 1.2093522204	-0.444079
H	 0.0957984929	 1.6559404457	-0.8937046077	 0.313259
H	 0.5924632175	-4.0625920952	 0.8004788433	 0.161519
H	 0.4463578907	-3.28817516	 2.3733524662	 0.153599
H	-3.4598017645	-4.7748554003	 1.7490128863	 0.20522
H	 0.4969391922	-0.4692755765	 2.2105641887	 0.130197
29.0955	89.6038	216.9751	267.4287	323.03	366.2364	421.6732	454.7652	467.1593	609.5558	628.8493	655.7615	701.258	729.6397	783.1451	812.6103	909.166	954.4272	975.0169	1010.9749	1051.4962	1156.8213	1195.7521	1232.5863	1333.118	1339.6485	1454.3614	1535.5932	1557.4648	1661.9143	2247.3453	3031.3521	3076.8686	3287.6804	3505.4154	3778.4853
OC1=NOC(CC#C)=C1	Oc1noc(CC#C)c1	
InChI=1S/C6H5NO2/c1-2-3-5-4-6(8)7-9-5/h1,4H,3H2,(H,7,8)	InChI=1S/C6H5NO2/c1-2-3-5-4-6(8)7-9-5/h1,4H,3H2,(H,7,8)
