14
gdb 48907	4.15244	1.28612	1.1494	2.6079	66.7	-0.2569	-0.0572	0.1997	1023.2702	0.100245	-436.636853	-436.629692	-436.628748	-436.668867	26.542	
O	-0.16373489	 0.3081337422	-0.6857253566	-0.257002
C	 0.1425584399	 1.0798228912	 0.1908948659	 0.048125
C	 1.3754364906	 1.8956599131	 0.1826157671	 0.204169
C	 1.9263472983	 2.9194741439	 1.1777118083	-0.257236
N	 2.7922634291	 3.4787146214	 0.054278358	-0.223544
C	 1.8556696249	 2.7766810161	-0.9363872628	-0.046043
C	 2.5899441128	 1.4846278	-0.7230963159	-0.25851
C	 3.7033311397	 2.3047621607	-0.1551108147	 0.446873
O	 4.8733182965	 2.2132162477	 0.0155446327	-0.297628
H	-0.5126667302	 1.2464706438	 1.0745123345	 0.089228
H	 1.182406134	 3.6602015168	 1.4797413998	 0.130732
H	 2.4951600893	 2.5760836586	 2.0476015416	 0.13205
H	 1.3884960174	 3.2114414229	-1.8063627257	 0.142102
H	 2.5599731976	 0.5648522114	-1.2894892121	 0.146682
94.1262	134.0778	169.0708	240.2825	400.1304	463.9781	493.0977	609.812	712.442	730.8027	774.5528	833.8062	851.2064	902.1946	915.4472	940.7703	954.4308	1014.1516	1021.3903	1060.5837	1098.2996	1125.6329	1159.7909	1186.4158	1238.0225	1283.4384	1368.9592	1429.7633	1511.4981	1805.4259	1937.5009	2888.2122	3052.5557	3117.1447	3232.3711	3250.9725
O=CC12CN3C1C2C3=O	O=C[C@]12CN3[C@H]1[C@H]2C3=O	
InChI=1S/C6H5NO2/c8-2-6-1-7-4(6)3(6)5(7)9/h2-4H,1H2	InChI=1S/C6H5NO2/c8-2-6-1-7-4(6)3(6)5(7)9/h2-4H,1H2/t3-,4-,6-/m0/s1
