16
gdb 16688	4.14708	1.74368	1.60084	2.1523	64.49	-0.2338	-0.0089	0.2249	833.5995	0.131809	-383.741744	-383.735161	-383.734217	-383.772217	26.333	
O	-0.0297870232	 1.4000835573	 0.0838644741	-0.441047
C	 0.0329444147	-0.002426322	 0.0151067275	 0.143057
C	-1.3759432553	-0.6191474285	-0.1807287793	-0.040231
C	-1.2288924789	-0.2514003516	-1.6874627203	-0.240771
C	 0.2797998131	-0.5946456232	-1.4306283062	-0.172922
C	 0.1785633521	-2.0759962854	-1.1166017241	 0.428381
O	 0.8810231114	-2.9833207731	-1.4735913319	-0.335956
C	-1.056722881	-2.1247585992	-0.185822102	-0.341419
H	 0.8654416292	 1.7461492587	 0.0109214813	 0.289365
H	 0.6515620414	-0.4129089766	 0.8254759852	 0.073068
H	-2.21654685	-0.2726889873	 0.4189392091	 0.079417
H	-1.7706522912	-0.8531870429	-2.421618571	 0.10168
H	-1.3696895325	 0.8114811649	-1.8729301207	 0.128107
H	 1.0960998043	-0.2719030088	-2.0744659719	 0.0767
H	-0.7907462358	-2.5375756066	 0.7927888912	 0.124415
H	-1.8557178883	-2.7396352758	-0.6109191609	 0.128157
137.8561	278.2349	295.7557	322.804	406.9213	454.8448	531.2435	594.1455	608.8715	758.397	815.6834	833.8086	878.7497	898.0108	944.6344	978.7422	1000.7796	1005.6899	1072.9545	1083.1691	1103.6063	1151.7361	1166.2276	1193.0216	1216.8099	1232.688	1258.5333	1275.2151	1301.5488	1327.9741	1429.4128	1458.9889	1498.7795	1866.5009	3001.1382	3054.8647	3072.7512	3101.7977	3126.6247	3139.3449	3161.5072	3817.1847
OC1C2CC1C(=O)C2	O[C@H]1[C@H]2C[C@@H]1C(=O)C2	
InChI=1S/C6H8O2/c7-5-2-3-1-4(5)6(3)8/h3-4,6,8H,1-2H2	InChI=1S/C6H8O2/c7-5-2-3-1-4(5)6(3)8/h3-4,6,8H,1-2H2/t3-,4+,6-/m0/s1
