18
gdb 52330	3.18962	1.18296	1.00588	2.1612	68.23	-0.242	0.0283	0.2702	1200.2648	0.148494	-476.243126	-476.23438	-476.233436	-476.277732	30.89	
O	-0.0074307231	 2.4215021333	-0.0133373847	-0.326727
C	 0.31823358	 1.6411228386	 0.8571344003	 0.166589
N	 1.4800465747	 0.9330399779	 0.8812140341	-0.266472
C	 2.5199358653	 1.1426148376	-0.1053195936	-0.202488
C	 3.588694589	 2.1598218903	 0.34648204	 0.20033
O	 4.4341667918	 2.4430817205	-0.757194463	-0.269079
C	 4.1962675525	 3.7939184692	-1.1615816217	-0.084835
C	 2.944487408	 4.1989625047	-0.3743232986	-0.121807
O	 3.037263306	 3.3725766822	 0.7846192869	-0.237161
H	-0.3282477993	 1.4021101014	 1.7240624458	 0.077858
H	 1.670303341	 0.3643761505	 1.6906780401	 0.249699
H	 3.0123596227	 0.1945157755	-0.3428930553	 0.11629
H	 2.0360982848	 1.5119553418	-1.0111087863	 0.143945
H	 4.1853127092	 1.755039384	 1.1759454506	 0.081315
H	 5.0621420722	 4.413475802	-0.8955566431	 0.106669
H	 4.0536264622	 3.828767074	-2.2458596544	 0.114
H	 2.9482629299	 5.2410300725	-0.0490520545	 0.118277
H	 2.0164135732	 3.991877004	-0.9204681927	 0.133598
58.654	78.5276	83.9431	166.1181	209.8226	290.4992	318.4097	411.2689	496.3756	532.7125	671.6998	729.4325	785.6675	863.4323	885.8253	949.6016	969.4218	990.4329	1023.632	1032.3934	1065.8032	1094.0349	1157.4944	1176.0393	1212.5712	1222.5892	1243.204	1283.5682	1310.1152	1352.4348	1378.9913	1397.7075	1410.3562	1431.62	1461.6814	1522.1435	1527.0717	1533.2216	1800.4246	2944.1965	3009.597	3021.8656	3040.284	3063.1188	3082.5219	3118.9215	3133.6222	3638.2004
O=CNCC1OCCO1	O=CNCC1OCCO1	
InChI=1S/C5H9NO3/c7-4-6-3-5-8-1-2-9-5/h4-5H,1-3H2,(H,6,7)	InChI=1S/C5H9NO3/c7-4-6-3-5-8-1-2-9-5/h4-5H,1-3H2,(H,6,7)
