20
gdb 22205	2.44659	0.76933	0.61754	2.2596	74.71	-0.2441	0.0095	0.2536	1782.0518	0.168185	-477.368263	-477.357314	-477.35637	-477.405211	38.365	
O	-0.172581509	 1.4738806184	 0.1322380633	-0.426093
C	 0.0235911332	 0.0703910758	 0.018414352	-0.081286
C	-1.3558138053	-0.5703903551	 0.0910511382	-0.254518
C	-1.3817688302	-2.0712121648	-0.020324563	 0.33047
C	-2.7217996356	-2.7631822906	-0.0553735601	-0.297258
C	-3.1533134085	-3.120118713	-1.4916499177	-0.055697
O	-4.4392866633	-3.7132682871	-1.5305005085	-0.415471
N	-0.2561677089	-2.6726510543	-0.1008881991	-0.170375
O	-0.4071272781	-4.0686423914	-0.2098749457	-0.407611
H	 0.6893449854	 1.8980029304	 0.0970793594	 0.286039
H	 0.5091265069	-0.1962424962	-0.9310670364	 0.098242
H	 0.6591032286	-0.3180847517	 0.8262658674	 0.100591
H	-1.8369205167	-0.2750060198	 1.0336234703	 0.125861
H	-1.9879968112	-0.1430099324	-0.6997982758	 0.125028
H	-2.662394798	-3.685915905	 0.5315527271	 0.118194
H	-3.4881662198	-2.1215787003	 0.3895749922	 0.109158
H	-3.2282992602	-2.2103381804	-2.0964723356	 0.113332
H	-2.3908891256	-3.7636705853	-1.9492484542	 0.112519
H	-4.3781653878	-4.5730718473	-1.1021233178	 0.283418
H	 0.507703364	-4.3672563199	-0.2350047362	 0.305458
53.8288	79.1696	99.4649	113.8132	155.0157	187.0454	254.4552	293.6669	305.0941	310.3119	339.3243	385.9025	407.3646	476.8717	589.1724	680.3698	789.8827	797.1087	877.0159	992.539	1004.2691	1008.03	1058.6959	1067.6554	1078.6114	1088.3035	1146.899	1212.3127	1220.0794	1255.4886	1296.8593	1307.1809	1316.8317	1357.5697	1395.7703	1410.1666	1417.649	1460.8127	1475.3628	1482.196	1512.5713	1522.0845	1728.0644	2997.496	3017.2218	3022.1858	3023.106	3046.505	3050.7449	3074.9606	3104.4045	3816.7182	3825.3076	3834.931
OCCC(CCO)=NO	OCCC(=NO)CCO	
InChI=1S/C5H11NO3/c7-3-1-5(6-9)2-4-8/h7-9H,1-4H2	InChI=1S/C5H11NO3/c7-3-1-5(6-9)2-4-8/h7-9H,1-4H2
