18
gdb 52052	2.84235	0.88055	0.73453	2.4331	79.85	-0.252	-0.0259	0.2261	1523.4368	0.144783	-401.89231	-401.882704	-401.88176	-401.927864	34.418	
O	-0.8681640402	 0.8642988152	 0.4671811766	-0.235052
C	 0.1109507865	 0.9495590204	-0.2274308515	 0.1565
C	 1.2223076724	 1.9560740006	-0.0440442835	-0.27126
C	 1.4437174362	 2.796594625	-1.3152581544	-0.295203
C	 2.661823219	 3.7078687334	-1.2174642631	 0.10281
C	 2.6239830254	 5.0281725583	-1.9173883839	-0.273995
N	 2.5486900358	 4.9761165206	-0.4538015367	-0.330302
C	 3.9233947627	 3.0189032438	-1.0782934868	 0.349097
C	 4.9538216907	 2.4061717895	-0.9867808083	-0.454427
H	 0.2609235039	 0.259259817	-1.0920270418	 0.071901
H	 0.9928440755	 2.5829163462	 0.8221041446	 0.123869
H	 2.146665316	 1.4009997288	 0.1685830586	 0.139527
H	 1.5671599885	 2.1308700546	-2.1785088274	 0.120342
H	 0.5587420553	 3.413163532	-1.5135091316	 0.108372
H	 3.5444359511	 5.4462183644	-2.3124303464	 0.133654
H	 1.7291191518	 5.2627879302	-2.4887571674	 0.117955
H	 1.5844811085	 5.0947064217	-0.1485016957	 0.235908
H	 5.8744407609	 1.8841670884	-0.8974993613	 0.200305
48.6146	69.9748	109.2242	128.9746	198.0626	227.2641	295.5045	362.5767	391.5122	513.4782	548.5031	576.0148	618.204	659.0748	699.2582	767.4309	840.2216	866.2455	901.39	948.7937	983.3228	1007.506	1056.195	1090.9041	1105.8806	1142.843	1192.4818	1242.197	1276.4334	1297.0705	1304.1008	1370.9502	1383.6681	1429.7486	1462.9423	1484.728	1507.1139	1837.7277	2237.5713	2846.5796	3021.6689	3028.6385	3066.7586	3105.9892	3110.1166	3203.2225	3484.3405	3501.5102
O=CCCC1(CN1)C#C	O=CCC[C@]1(CN1)C#C	
InChI=1S/C7H9NO/c1-2-7(6-8-7)4-3-5-9/h1,5,8H,3-4,6H2	InChI=1S/C7H9NO/c1-2-7(6-8-7)4-3-5-9/h1,5,8H,3-4,6H2/t7-/m0/s1
