14
gdb 10967	2.77806	2.68235	1.9256	2.1705	62.61	-0.2561	-0.0116	0.2444	742.9831	0.106118	-382.51775	-382.510937	-382.509992	-382.548587	25.831	
C	 0.0351545594	 1.5434075658	-0.0641703514	-0.514612
C	-0.0082389095	 0.0486117173	 0.0348808318	 0.252304
O	 0.3270211134	-0.6922977583	-1.1837459283	-0.295421
C	-0.2468382734	-1.8690087339	-0.5546910206	-0.098935
C	 0.5694431714	-2.0152087349	 0.7081798864	-0.086483
C	 0.7294585682	-0.7376677137	 1.1004092134	-0.124075
C	-1.3392873656	-0.8427460707	-0.014672973	 0.394223
O	-2.5079518309	-0.7302536582	 0.1127483545	-0.296653
H	 1.0518255237	 1.8872669346	-0.2771119429	 0.140534
H	-0.6269787994	 1.8975068549	-0.8578408781	 0.143201
H	-0.2883926339	 1.9898887909	 0.8806328022	 0.136572
H	-0.4423263009	-2.7029258583	-1.2230578425	 0.104798
H	 0.8451559151	-2.9363186752	 1.1996855683	 0.123759
H	 1.1747598024	-0.3346611804	 1.9985154602	 0.120787
134.0089	153.01	211.0381	309.7131	385.988	524.7129	566.1558	597.561	666.0372	730.306	782.8065	803.4007	855.9527	886.219	893.1952	912.296	946.9018	995.1443	1065.407	1102.1315	1130.7679	1157.6724	1260.6821	1305.7669	1356.579	1417.4489	1476.9837	1491.2403	1578.3984	1926.4222	3047.1825	3117.7937	3129.4648	3172.476	3232.4395	3257.1275
CC12OC(C=C1)C2=O	C[C@@]12O[C@@H](C=C1)C2=O	
InChI=1S/C6H6O2/c1-6-3-2-4(8-6)5(6)7/h2-4H,1H3	InChI=1S/C6H6O2/c1-6-3-2-4(8-6)5(6)7/h2-4H,1H3/t4-,6+/m0/s1
