16
gdb 98702	2.90256	1.07181	0.90305	5.6361	70.56	-0.2682	-0.0506	0.2175	1315.9647	0.121385	-437.885319	-437.87599	-437.875046	-437.920744	32.127	
C	-0.1400721693	 1.5657720202	-0.2293848853	-0.381923
C	 0.2817709297	 0.1003418542	-0.1729471511	-0.297619
C	 0.272893599	-0.4746663378	 1.2300194136	 0.377705
O	 0.0287037314	 0.1660577715	 2.2213848446	-0.287125
C	 0.5860937922	-1.9580155818	 1.3259025154	-0.038711
O	 1.0146048844	-2.4420296158	 2.5906915566	-0.201775
C	-0.2658213335	-2.8572102807	 2.1514880967	-0.102753
C	-1.4222088007	-2.3750220884	 2.8776298022	 0.32502
N	-2.3855356651	-2.0716548418	 3.4383356293	-0.318473
H	 0.5190818368	 2.1822039745	 0.3864013652	 0.140475
H	-0.1056822036	 1.9367269021	-1.2568940578	 0.116954
H	-1.1560101095	 1.6931271446	 0.1526131625	 0.14103
H	-0.3649647201	-0.531358136	-0.7996269439	 0.129569
H	 1.2934021971	-0.0415324228	-0.5811513779	 0.132181
H	 1.0808949244	-2.4125537173	 0.4671614725	 0.117198
H	-0.3410303934	-3.9018214147	 1.8521250973	 0.148247
37.6768	68.9119	108.1927	174.8561	196.8881	227.1588	277.7278	304.2048	374.9344	508.8548	564.6626	596.5775	674.4415	780.012	808.3136	878.5631	907.4273	968.6937	995.3276	1035.117	1074.3804	1095.1623	1124.8836	1136.4267	1272.2783	1274.6618	1357.6848	1382.7273	1416.0694	1431.8678	1447.0585	1493.1611	1497.9144	1823.1859	2366.3854	3007.5213	3033.1759	3055.9157	3112.0053	3128.7928	3129.3504	3132.6618
CCC(=O)C1OC1C#N	CCC(=O)[C@H]1O[C@H]1C#N	
InChI=1S/C6H7NO2/c1-2-4(8)6-5(3-7)9-6/h5-6H,2H2,1H3	InChI=1S/C6H7NO2/c1-2-4(8)6-5(3-7)9-6/h5-6H,2H2,1H3/t5-,6+/m0/s1
