23
gdb 63695	2.52931	1.48642	1.19683	1.6574	85.18	-0.2358	0.0815	0.3173	1174.607	0.204121	-388.274311	-388.264857	-388.263912	-388.30823	36.987	
C	-0.5178232502	 1.5357779582	 0.0132716759	-0.453639
C	-0.0120967604	 0.095754782	 0.0315660673	 0.344038
C	-1.1456643223	-0.8741646697	-0.310787371	-0.439558
C	 1.2755395841	-0.184579423	-0.824128049	-0.32825
C	 2.0061144436	-0.6993966369	 0.4391182468	 0.467978
C	 2.780343265	-1.9906248848	 0.3957470911	-0.476449
O	 2.7480951833	 0.3713257179	 1.0865006704	-0.33068
C	 1.6691318208	 0.6220312822	 2.0148831725	-0.106081
C	 0.7510216035	-0.3862576493	 1.3146090423	-0.16895
H	 0.2868411343	 2.2558062698	 0.1869918461	 0.121941
H	-0.9605580722	 1.7717373568	-0.9613833908	 0.113001
H	-1.2895733105	 1.6981393284	 0.7750519211	 0.10972
H	-1.5349759473	-0.6805758608	-1.3169623736	 0.111878
H	-0.806274783	-1.9155505377	-0.280412965	 0.110425
H	-1.9766035261	-0.7749136615	 0.3975612005	 0.110857
H	 1.1293827145	-0.9328221832	-1.6092300438	 0.091151
H	 1.7554885723	 0.6968651605	-1.2556620655	 0.102655
H	 3.6760370064	-1.8702789148	-0.2246443192	 0.127662
H	 3.1007825028	-2.2895151315	 1.3984719847	 0.120435
H	 2.1757785736	-2.7958355655	-0.034192879	 0.11432
H	 1.9479303508	 0.3293254788	 3.036295304	 0.095252
H	 1.3622119355	 1.6741431348	 2.0271357125	 0.097685
H	 0.2372496116	-1.1180926507	 1.9396984417	 0.064608
39.4449	202.6089	211.3427	221.7969	262.0767	267.7239	305.3135	323.6742	349.3957	389.1084	410.9892	481.0932	574.1868	664.6732	723.4732	825.5639	842.8694	900.3853	916.6449	921.4555	949.341	963.2206	1000.1293	1006.0134	1014.8866	1029.2944	1079.0412	1113.6663	1156.2435	1171.2903	1186.1588	1213.3303	1233.9622	1239.2471	1283.0456	1315.9366	1332.5705	1353.9752	1400.2569	1408.6936	1419.4301	1465.3037	1479.9704	1484.23	1485.8932	1489.1852	1500.6468	1506.5897	1529.1486	3003.7265	3017.2677	3023.9699	3029.1012	3049.4456	3053.2128	3082.7476	3086.8375	3089.0657	3096.12	3097.4794	3104.1578	3108.3601	3112.6993
CC1(C)CC2(C)OCC12	CC1(C)C[C@@]2(C)OC[C@@H]12	
InChI=1S/C8H14O/c1-7(2)5-8(3)6(7)4-9-8/h6H,4-5H2,1-3H3	InChI=1S/C8H14O/c1-7(2)5-8(3)6(7)4-9-8/h6H,4-5H2,1-3H3/t6-,8+/m0/s1
