15
gdb 125443	2.5499	1.48482	0.94457	3.5228	72.87	-0.2289	-0.0472	0.1817	1174.0269	0.113536	-450.179439	-450.171124	-450.17018	-450.212409	30.203	
C	-0.034892171	 1.4798168232	-0.0013537646	-0.509095
C	 0.0062655637	-0.010934774	-0.0471232236	 0.383001
N	 0.0114357217	-0.7291868035	-1.1397080172	-0.353555
C	 0.0564918193	-2.0277060775	-0.6655289642	 0.424031
N	 0.1333138061	-3.0832939002	-1.5313162855	-0.579602
N	 0.0713896909	-2.1560388025	 0.6441524779	-0.30669
N	 0.045644273	-0.8388419291	 1.0544737737	-0.076513
C	 0.0503206313	-0.4698916401	 2.4003690198	 0.177345
O	 0.0793840784	-1.234366493	 3.322950427	-0.2625
H	 0.8492705477	 1.8949333734	 0.4926862212	 0.153146
H	-0.0656083711	 1.8489960932	-1.0268005655	 0.165733
H	-0.918957656	 1.8467420466	 0.5295556411	 0.151624
H	-0.2396261289	-2.9026488845	-2.4499052508	 0.266341
H	-0.1126834149	-3.9798254718	-1.1410054339	 0.26834
H	 0.0226063998	 0.6289209797	 2.5048053644	 0.098392
118.2871	128.2488	197.3908	210.3801	227.8942	282.9191	363.3536	413.894	450.4122	536.2296	564.9978	639.5453	660.7999	726.0323	778.2715	893.8499	1008.1498	1014.1321	1029.5601	1063.5338	1122.4069	1143.6019	1350.0574	1364.5281	1408.0823	1435.4491	1457.1581	1482.1144	1482.9837	1574.71	1616.2194	1667.3463	1837.9978	2985.1131	3046.7529	3103.856	3154.5989	3591.1254	3704.3956
CC1=NC(N)=NN1C=O	Cc1nc(N)nn1C=O	
InChI=1S/C4H6N4O/c1-3-6-4(5)7-8(3)2-9/h2H,1H3,(H2,5,7)	InChI=1S/C4H6N4O/c1-3-6-4(5)7-8(3)2-9/h2H,1H3,(H2,5,7)
