17
gdb 128763	3.34661	1.09645	0.84053	4.655	72.35	-0.255	-0.0306	0.2244	1338.4345	0.133783	-455.116993	-455.107655	-455.106711	-455.152858	31.766	
C	-0.1995594599	 1.417151895	 0.3382976867	-0.231213
O	-0.3417236286	 0.0363473071	 0.5951129876	-0.226974
C	-1.0148253848	-0.63725666	-0.4370644903	-0.163092
C	-1.1607486162	-2.0819817068	-0.0855282704	 0.308886
C	-1.0018326799	-2.8254780016	 1.0470766544	 0.166555
C	-0.5901933255	-2.4771105352	 2.4376250687	-0.501281
N	-1.3194696689	-4.1227127362	 0.6861261861	-0.157458
N	-1.6440260586	-4.2022783518	-0.5217942545	-0.019512
O	-1.5545681729	-2.8837570765	-1.0786101133	-0.226182
H	 0.3327800314	 1.849426783	 1.1876115257	 0.138349
H	 0.3801617401	 1.5993081324	-0.5791742795	 0.115711
H	-1.1768040093	 1.9129633192	 0.2361055774	 0.114761
H	-2.0146879135	-0.2002472859	-0.6086297894	 0.121949
H	-0.4693499487	-0.5540288327	-1.3921860515	 0.124146
H	-1.3660868206	-2.7669390202	 3.1534312519	 0.139731
H	 0.3249618274	-3.0094571224	 2.7166636759	 0.141384
H	-0.4112404616	-1.4062220475	 2.5207052146	 0.154241
25.2606	78.5622	86.6603	142.055	224.5515	235.8523	288.1717	306.8513	361.4091	417.3772	642.5349	661.8564	697.7815	705.3588	766.3251	985.608	1008.2853	1024.3982	1040.693	1074.6219	1156.8155	1184.6422	1201.8145	1220.1096	1238.2105	1256.4385	1348.5435	1416.6644	1444.45	1475.0945	1481.6613	1486.0035	1487.9234	1492.3779	1498.1841	1520.8478	1658.9605	2949.1077	2976.7602	2982.4349	3030.8442	3046.0831	3097.2847	3129.4772	3169.0124
COCC1=C(C)N=NO1	COCc1c(C)nno1	
InChI=1S/C5H8N2O2/c1-4-5(3-8-2)9-7-6-4/h3H2,1-2H3	InChI=1S/C5H8N2O2/c1-4-5(3-8-2)9-7-6-4/h3H2,1-2H3
