14
gdb 26618	2.39683	1.88666	1.0569	5.1213	70.9	-0.1917	-0.0306	0.1611	1036.7897	0.101639	-473.883478	-473.875721	-473.874776	-473.915382	29.929	
N	-0.0428241617	 1.4013228903	 0.1509052253	-0.583755
C	-0.0655755751	 0.0186044602	 0.0527871717	 0.040908
C	-1.2107702951	-0.7296036958	 0.0288668388	 0.318294
O	-2.4016441895	-0.0666532427	 0.0375155866	-0.441986
C	-1.133205129	-2.1552012078	-0.0046273702	-0.291616
C	 0.0811251587	-2.7376103232	-0.0202024351	 0.065994
O	 1.2231909383	-2.0250383924	-0.0155737553	-0.215073
C	 1.2276336189	-0.6354039909	 0.006078717	 0.408518
O	 2.2909247143	-0.060100061	-0.022422223	-0.375308
H	 0.8454180856	 1.7894023583	-0.1372172137	 0.26525
H	-0.8477007138	 1.8702507457	-0.2372575512	 0.257031
H	-3.1259728324	-0.698724645	-0.001676619	 0.303677
H	-2.0277337402	-2.7667788685	-0.0132310881	 0.105865
H	 0.2632752212	-3.8035183171	-0.0392080838	 0.142203
131.512	198.8257	277.2484	286.122	307.3779	351.1287	371.3497	488.8781	511.4953	527.3591	573.3683	627.059	652.1897	708.1749	749.5665	760.0119	853.0581	876.7413	972.4865	1084.0702	1123.2233	1171.7435	1266.242	1299.2372	1339.5674	1402.0249	1469.5075	1595.77	1632.0392	1715.0978	1802.2405	3197.716	3233.7913	3553.135	3669.4106	3835.5847
NC1=C(O)C=COC1=O	Nc1c(O)ccoc1=O	
InChI=1S/C5H5NO3/c6-4-3(7)1-2-9-5(4)8/h1-2,7H,6H2	InChI=1S/C5H5NO3/c6-4-3(7)1-2-9-5(4)8/h1-2,7H,6H2
