25
gdb 96173	2.13405	1.68782	1.08997	0.1522	91.77	-0.271	0.0793	0.3503	1230.4569	0.232335	-352.373501	-352.365012	-352.364068	-352.406034	34.899	
C	-0.0703023895	 1.5793684726	-0.0355558611	-0.401819
C	 0.0220612345	 0.0495433602	-0.0186369788	 0.00688
C	 0.573422177	-0.5132270863	-1.3394062776	-0.186264
C	 0.7375622982	-2.0377203814	-1.2802212134	-0.205896
C	 1.7519642835	-2.4237838045	-0.1960103469	-0.196765
C	 1.3397426015	-1.9266492722	 1.2014424038	-0.01747
C	 2.5411318391	-1.417782283	 2.048434535	-0.231188
C	 2.2490215843	 0.0175379346	 1.529249313	-0.236171
C	 0.8034374993	-0.4589791327	 1.1981784106	 0.05524
H	 0.9226454644	 2.0327503813	-0.1337805521	 0.114475
H	-0.6795319681	 1.930420435	-0.8755800237	 0.106653
H	-0.5198749878	 1.9626796465	 0.8870840545	 0.106857
H	-1.0007652579	-0.3456697796	 0.0824639998	 0.064755
H	-0.0968357094	-0.2288627275	-2.1594773247	 0.085101
H	 1.5466178625	-0.0542217993	-1.5663852558	 0.087861
H	-0.2354683234	-2.5036765125	-1.0696520594	 0.088447
H	 1.0640011922	-2.4237788783	-2.2526170096	 0.086821
H	 1.904156928	-3.5088843145	-0.1698423301	 0.088643
H	 2.7224678902	-1.9894577713	-0.4718057945	 0.090407
H	 0.6833945823	-2.6622086702	 1.6773489982	 0.055166
H	 2.3489368969	-1.5010347592	 3.1221131646	 0.094863
H	 3.5226220902	-1.8508659746	 1.8354622918	 0.08956
H	 2.361156114	 0.8479660601	 2.2305147297	 0.091203
H	 2.8286016513	 0.2479275938	 0.6304593757	 0.099911
H	 0.1902403567	-0.3070580371	 2.0947804707	 0.062731
122.8005	162.4006	216.5335	240.9254	279.8134	326.1937	358.1212	405.9047	437.3933	527.9742	580.132	640.4839	745.5077	785.4877	837.2503	854.2864	897.0335	905.0565	930.0638	947.603	962.6444	968.2952	992.6073	1025.7349	1048.6923	1069.4575	1095.6443	1112.507	1144.0304	1160.4304	1192.4846	1216.3104	1233.449	1251.4142	1260.8887	1268.6482	1280.3782	1302.1485	1332.9235	1344.0985	1355.3123	1371.121	1373.0782	1387.1411	1398.7365	1411.7641	1481.0226	1485.8864	1489.0813	1496.7936	1496.819	1501.2312	1506.221	2976.0874	3004.9995	3008.8044	3014.2261	3021.7788	3025.2596	3039.6264	3049.6093	3052.3667	3057.1458	3060.8086	3065.0165	3092.059	3092.8361	3093.758	3110.8285
CC1CCCC2CCC12	C[C@H]1CCC[C@H]2CC[C@@H]12	
InChI=1S/C9H16/c1-7-3-2-4-8-5-6-9(7)8/h7-9H,2-6H2,1H3	InChI=1S/C9H16/c1-7-3-2-4-8-5-6-9(7)8/h7-9H,2-6H2,1H3/t7-,8-,9-/m0/s1
