13
gdb 124137	6.21842	0.84928	0.75072	6.4154	81.67	-0.2536	-0.0976	0.156	1434.851	0.087519	-411.709722	-411.701474	-411.70053	-411.744892	27.769	
C	-0.0288261248	 1.467456272	 0.0103578837	-0.508061
C	-0.0008392217	 0.016324697	 0.002379843	 0.232528
C	 0.0047577485	-1.1902073805	-0.0040650072	-0.033941
C	 0.0426504709	-2.6054182503	-0.0112572095	 0.207743
C	 1.247264509	-3.3230940167	-0.0221296928	-0.030393
N	 1.2471663468	-4.6426141625	-0.0289694406	-0.158273
N	 0.0739057412	-5.2784688907	-0.0254027341	-0.053947
N	-1.0613641016	-4.6142609747	-0.0153953329	-0.072034
N	-1.111614951	-3.2898643985	-0.0081972504	-0.236654
H	 0.9828161657	 1.8852518767	 0.0030426922	 0.164269
H	-0.5622906932	 1.8486625892	-0.8670202405	 0.170972
H	-0.5455437208	 1.8392381528	 0.901701705	 0.170969
H	 2.212548811	-2.8258761038	-0.0253214858	 0.146821
15.0048	78.7632	88.6784	183.3619	309.5283	315.9628	376.8066	422.9742	528.6756	587.7412	677.4685	785.9459	838.6259	869.8055	970.8645	1004.8727	1042.9397	1052.333	1077.2867	1097.9076	1217.637	1326.3355	1381.4276	1411.0462	1465.4891	1469.558	1469.8429	1574.8592	2354.232	3034.6981	3099.0908	3105.0373	3181.5082
CC#CC1=CN=NN=N1	CC#Cc1cnnnn1	
InChI=1S/C5H4N4/c1-2-3-5-4-6-8-9-7-5/h4H,1H3	InChI=1S/C5H4N4/c1-2-3-5-4-6-8-9-7-5/h4H,1H3
