21
gdb 58871	2.48552	1.38919	1.06438	1.3751	78.51	-0.2457	0.0698	0.3154	1203.7806	0.181116	-424.194774	-424.185199	-424.184255	-424.228956	36.466	
C	-0.0303310174	 1.5551898659	 0.2130356134	-0.405724
C	-0.0242191831	 0.0436408361	-0.025246178	-0.013327
O	 0.8048874564	-0.6339396508	 0.9156237492	-0.428011
C	-1.4263159632	-0.5225280696	-0.0488918574	 0.406627
C	-2.1522672827	-1.0008911007	 1.1800075694	-0.335788
C	-1.9230958834	-1.9686217049	 0.0522871102	-0.117575
C	-2.969497406	-1.7241803949	-1.0395550644	-0.271735
C	-2.4238856291	-0.2590037685	-1.1727063116	 0.031484
O	-3.2902547608	 0.8301447836	-0.9244243434	-0.436906
H	 0.9866865385	 1.9550379545	 0.1666895335	 0.115298
H	-0.6507015742	 2.0671728879	-0.5284095954	 0.133031
H	-0.4531779145	 1.7823624899	 1.1994786746	 0.11145
H	 0.4440036618	-0.1597135373	-0.9980464731	 0.082199
H	 0.6047191505	-0.2759034321	 1.7870142227	 0.279314
H	-1.5189260924	-1.1594480255	 2.046575467	 0.098878
H	-3.1522995246	-0.6419037943	 1.4066033627	 0.114554
H	-1.3279414504	-2.8640099477	 0.1781634897	 0.09479
H	-2.824349342	-2.3122328191	-1.9487974654	 0.098442
H	-4.0137992174	-1.8068388532	-0.7202260591	 0.094683
H	-1.9012961215	-0.1293685643	-2.1317404051	 0.0654
H	-3.8916172646	 0.9137363351	-1.6715052797	 0.282916
62.3601	109.603	178.5538	205.3845	255.8013	283.1126	288.8996	311.5269	318.6107	414.6236	442.5733	503.7166	588.7591	662.4184	703.6038	830.755	851.878	864.9538	913.9045	937.9584	974.3085	1006.9601	1022.9032	1052.8504	1063.3842	1076.9527	1095.8126	1116.8836	1127.7234	1176.7504	1201.7168	1211.7086	1249.3325	1270.3505	1303.21	1323.8321	1361.8866	1386.2997	1405.4601	1416.7088	1430.5509	1473.4406	1488.5033	1492.5061	1499.6124	2987.7858	3013.9496	3028.3947	3043.0063	3098.3733	3105.2566	3118.7794	3121.2633	3195.0096	3208.3504	3808.2523	3813.5025
CC(O)C12CC1CC2O	C[C@@H](O)[C@]12C[C@H]1C[C@H]2O	
InChI=1S/C7H12O2/c1-4(8)7-3-5(7)2-6(7)9/h4-6,8-9H,2-3H2,1H3	InChI=1S/C7H12O2/c1-4(8)7-3-5(7)2-6(7)9/h4-6,8-9H,2-3H2,1H3/t4-,5-,6-,7-/m1/s1
