17
gdb 36494	4.10669	1.06973	0.92751	4.3526	72.27	-0.2357	0.0366	0.2722	1229.6916	0.137323	-418.000096	-417.992191	-417.991247	-418.033096	29.516	
N	 0.0254296076	-1.1277390079	-0.1579559379	-0.314056
C	 0.0014927883	 0.0259472434	-0.0916425754	 0.257235
C	 0.0183843933	 1.4828426182	 0.0058803498	-0.328651
C	 1.4601043334	 2.0341603003	 0.0516350679	-0.002855
N	 2.1709045134	 1.7039206287	-1.1857614762	-0.310019
C	 3.1225594261	 2.7677074051	-1.521329958	-0.190736
C	 2.5131123697	 3.9963169402	-0.8804843012	 0.048746
O	 1.1137293233	 4.1621105639	-1.142543368	-0.246817
C	 1.5107503845	 3.5514339614	 0.0894764562	 0.023826
H	-0.4827547263	 1.9113958773	-0.8669260638	 0.171682
H	-0.5360052407	 1.7812551964	 0.9031602695	 0.142835
H	 1.953170575	 1.6606328872	 0.9656931457	 0.081547
H	 2.5801382341	 0.7799550209	-1.1738085303	 0.241081
H	 4.1307718989	 2.628215758	-1.0949261627	 0.095312
H	 3.2283925955	 2.8610189348	-2.6085178279	 0.121016
H	 3.0878900385	 4.9115280062	-0.7743948013	 0.105665
H	 1.2555964356	 4.0890320257	 0.9985374335	 0.104188
72.1686	101.088	155.8946	241.3004	331.9929	393.5525	402.9531	462.595	541.2332	590.4767	684.4064	803.4026	835.9922	866.9684	880.2401	942.825	945.9772	982.2098	1000.9674	1023.7339	1073.6789	1087.181	1119.4268	1135.6554	1213.4169	1227.8796	1260.3111	1270.8306	1298.7128	1321.291	1372.0805	1385.857	1443.9608	1454.55	1457.3076	1509.884	2359.9596	2951.471	2960.1029	3048.0615	3050.7611	3105.8055	3153.5933	3168.0791	3588.0804
N#CCC1NCC2OC12	N#CC[C@H]1NC[C@H]2O[C@@H]12	
InChI=1S/C6H8N2O/c7-2-1-4-6-5(9-6)3-8-4/h4-6,8H,1,3H2	InChI=1S/C6H8N2O/c7-2-1-4-6-5(9-6)3-8-4/h4-6,8H,1,3H2/t4-,5-,6+/m1/s1
