17
gdb 37613	3.10487	2.58334	2.31799	1.1516	71.56	-0.2079	0.0445	0.2524	719.2029	0.14133	-380.783707	-380.77885	-380.777906	-380.812601	22.33	
C	-0.0326150443	 1.5022521419	-0.0224901213	-0.192214
C	 1.4764764317	 1.7927050683	 0.0053757789	-0.068069
C	 2.0424893766	 0.8327040148	 1.0850366065	-0.007571
C	 0.9893651002	-0.325934928	 1.0932140948	-0.042002
C	 1.8962259608	-1.0569893385	 0.0758402429	-0.004021
C	 1.0369040005	-0.3709820286	-1.0117475084	-0.042002
C	 2.0897048832	 0.7879632168	-1.0056065231	-0.007571
N	 2.9119363261	 0.0802781722	 0.0744411616	-0.182478
N	 0.0050336958	 0.0277737377	 0.0099149903	-0.116219
H	-0.569022255	 1.8925338522	 0.8490938725	 0.108637
H	-0.5287676122	 1.8543895208	-0.9332826188	 0.108637
H	 1.8200986576	 2.8255949482	-0.0089681279	 0.07526
H	 2.4993498917	 1.1883881584	 2.0091302253	 0.071888
H	 0.5735767029	-0.7145603294	 2.0227118868	 0.073839
H	 2.2311809446	-2.0916171189	 0.1055465301	 0.078157
H	 0.6631069437	-0.7993985522	-1.9415919684	 0.07384
H	 2.5881423056	 1.1042492944	-1.922506254	 0.071888
392.2898	572.5957	577.8218	657.7233	733.7068	734.0314	817.8237	824.5773	839.012	839.2823	868.9	885.5355	900.254	910.0801	920.2481	932.4615	969.9907	977.8242	991.4142	1041.5309	1049.9274	1076.3097	1143.8492	1171.2689	1176.8605	1188.4125	1191.7633	1203.6623	1228.4959	1248.8503	1255.0725	1261.9532	1265.1591	1266.2085	1284.7959	1329.528	1484.4484	3043.9128	3095.6281	3096.4615	3098.4497	3107.5955	3108.6215	3134.2029	3137.9998
C1C2C3C4C5C(C2N35)N14	C1[C@H]2[C@H]3[C@@H]4[C@H]5[C@H]([C@@H]2N35)N14	
InChI=1S/C7H8N2/c1-2-3-5-7-6(8(1)5)4(2)9(3)7/h2-7H,1H2	InChI=1S/C7H8N2/c1-2-3-5-7-6(8(1)5)4(2)9(3)7/h2-7H,1H2/t2-,3-,4+,5+,6-,7-
