19
gdb 7784	3.06175	1.81441	1.21576	3.9383	72.4	-0.2337	0.0336	0.2673	1014.2542	0.167699	-365.124863	-365.117052	-365.116108	-365.157009	29.904	
C	-0.0436262117	 1.5562834825	 0.0062243499	-0.402591
C	 0.0370873595	 0.0293801511	-0.0215122913	 0.069067
C	 0.6799959948	-0.5008755631	-1.3047346639	-0.186949
C	 0.9302784415	-2.0068008241	-1.1996465576	-0.22858
C	 1.8938699804	-2.2969523981	-0.0441159991	-0.294993
C	 1.5580126151	-1.5714067514	 1.255311587	 0.387593
O	 1.9926083073	-1.9388292329	 2.3317861646	-0.378764
N	 0.7852637077	-0.4457552817	 1.1423788001	-0.3102
H	 0.9561768052	 1.9976911473	-0.0545610126	 0.126777
H	-0.6394953463	 1.9228518818	-0.8352448888	 0.121042
H	-0.5172041458	 1.9108556416	 0.9282860752	 0.115882
H	-0.9914286769	-0.3667099605	 0.0247922675	 0.081097
H	 0.024355669	-0.2662159687	-2.1495722952	 0.100279
H	 1.6302646039	 0.022180134	-1.4762608388	 0.101436
H	-0.0236757668	-2.5229109137	-1.030173649	 0.104409
H	 1.3354934447	-2.4000057421	-2.1375743102	 0.100914
H	 1.9526494281	-3.3619721923	 0.1925241077	 0.127609
H	 2.9108316011	-1.985650589	-0.3167643727	 0.127915
H	 0.5707334494	-0.0229803507	 2.035621157	 0.238056
97.2096	106.2228	240.7456	267.9409	287.1232	422.0725	433.3715	458.453	515.867	539.5463	630.8506	668.266	761.7731	858.676	867.4797	912.1957	967.7998	992.2963	1000.6374	1062.0964	1092.0768	1119.6608	1180.8029	1183.5684	1235.6795	1277.8532	1322.3753	1344.2317	1359.7173	1376.1086	1382.1535	1403.1091	1411.9795	1457.491	1472.7456	1486.5387	1496.807	1498.542	1502.4951	1786.1455	2951.5081	3020.6533	3026.4723	3032.8453	3035.0114	3074.9952	3079.7175	3100.5506	3106.2688	3114.5419	3587.9867
CC1CCCC(=O)N1	C[C@H]1CCCC(=O)N1	
InChI=1S/C6H11NO/c1-5-3-2-4-6(8)7-5/h5H,2-4H2,1H3,(H,7,8)	InChI=1S/C6H11NO/c1-5-3-2-4-6(8)7-5/h5H,2-4H2,1H3,(H,7,8)/t5-/m0/s1
