17
gdb 11605	6.001	0.96088	0.87743	2.5071	65.46	-0.2624	0.0597	0.322	1303.162	0.142038	-401.031379	-401.022817	-401.021872	-401.065786	30.506	
N	-0.2036967774	 1.231896264	-0.1971100547	-0.562858
C	 0.0293213118	-0.0950103869	 0.0445595421	 0.494498
O	 1.1066204722	-0.5775609188	 0.3064824197	-0.399334
O	-1.1337038733	-0.7859365742	-0.0196681104	-0.262224
C	-1.0248876849	-2.1890757622	 0.2878415162	-0.069306
C	-2.3945866463	-2.7931203275	 0.1908950579	 0.003252
C	-2.9386771973	-3.2184889439	-1.1489254584	-0.250881
C	-2.5243743731	-4.2592048385	-0.1405228902	-0.271581
H	 0.6076679583	 1.7921828246	-0.3936866349	 0.266739
H	-1.0735792649	 1.4968596018	-0.627161531	 0.262722
H	-0.3314224386	-2.6604863947	-0.417257637	 0.11316
H	-0.5985543437	-2.2994686854	 1.2902502904	 0.121614
H	-3.1121812355	-2.390797195	 0.8999609556	 0.091422
H	-3.996268995	-3.0769137215	-1.3402806821	 0.114157
H	-2.3061058454	-3.0741042911	-2.0185137193	 0.1154
H	-1.6151631979	-4.8193738494	-0.3327563897	 0.117088
H	-3.2957361787	-4.8289772912	 0.3647427456	 0.116131
31.4153	63.8241	134.6919	170.5684	270.8823	330.671	360.3061	403.0295	491.9174	536.7185	658.7582	776.2914	786.2434	818.541	839.0436	903.094	930.2298	975.9584	1035.9623	1059.5598	1079.8321	1085.1899	1119.0714	1137.4974	1196.7059	1201.2299	1227.5116	1277.2273	1336.0111	1388.2861	1445.6298	1470.7414	1503.07	1514.2547	1611.9402	1831.6294	3041.3873	3084.1864	3133.3678	3137.8481	3153.1086	3211.8774	3226.72	3613.0773	3742.3705
NC(=O)OCC1CC1	NC(=O)OCC1CC1	
InChI=1S/C5H9NO2/c6-5(7)8-3-4-1-2-4/h4H,1-3H2,(H2,6,7)	InChI=1S/C5H9NO2/c6-5(7)8-3-4-1-2-4/h4H,1-3H2,(H2,6,7)
