23
gdb 57379	2.66062	1.33323	1.32699	1.6704	85.1	-0.2316	0.0772	0.3089	1154.8831	0.203748	-388.237864	-388.228424	-388.22748	-388.271471	37.3	
C	-0.0339493398	 1.5406325196	 0.0194952913	-0.41314
C	 0.0208810968	 0.0031565943	-0.0334375871	 0.096068
C	 0.7936700306	-0.5436763564	 1.1814304408	-0.412664
C	-1.4046555579	-0.5796192471	-0.0515775746	-0.412666
C	 0.738565474	-0.41234352	-1.3008765571	 0.482629
C	 0.3192316787	-0.2456888143	-2.7925287168	-0.276965
C	 1.5413731773	-1.183365712	-2.7096246929	 0.042272
C	 2.225501226	-0.2143740833	-1.7233339602	-0.276962
O	 0.9101486548	-1.8745923053	-1.5639599942	-0.36115
H	 0.9704572943	 1.9768239661	 0.0277160513	 0.114138
H	-0.5751223832	 1.9515587573	-0.8392452366	 0.114137
H	-0.5489083333	 1.8695166824	 0.92795101	 0.113768
H	 0.2663676345	-0.3011485051	 2.1098433112	 0.106454
H	 0.8992792544	-1.6298492925	 1.1167766515	 0.13379
H	 1.796748048	-0.1093603503	 1.2424735567	 0.110059
H	-1.9902384278	-0.1712307371	-0.8815386315	 0.110058
H	-1.3775261712	-1.6670706507	-0.1603063839	 0.133787
H	-1.9279757798	-0.3370877884	 0.8790852182	 0.106455
H	-0.6168599972	-0.7307825478	-3.0710785066	 0.105942
H	 0.4501012997	 0.734056822	-3.2595000053	 0.092623
H	 1.9859840546	-1.8081903744	-3.4840294582	 0.092804
H	 2.5312179466	 0.7682444449	-2.0922343958	 0.092622
H	 2.96304156	-0.671974912	-1.06317546	 0.105941
59.603	181.8211	191.1628	221.1716	262.9399	272.318	313.549	328.7056	336.3557	438.003	439.805	533.2292	575.1428	605.1981	736.0733	806.3764	815.6072	898.2856	918.635	939.393	941.2012	942.5539	961.3334	980.573	987.1969	1035.8154	1042.2069	1093.8521	1102.3913	1120.1618	1154.1696	1189.4061	1219.8525	1230.2735	1232.774	1257.1966	1261.1613	1353.0021	1393.8135	1394.8871	1429.0713	1466.7014	1478.3296	1487.4842	1489.9899	1502.4652	1503.0384	1510.6748	1525.4178	3028.3862	3032.7302	3038.6191	3056.5897	3065.829	3096.8448	3098.8784	3101.241	3104.3023	3118.1074	3119.4435	3121.7815	3143.7397	3148.2438
CC(C)(C)C12CC(C1)O2	CC(C)(C)[C@@]12C[C@@H](C1)O2	
InChI=1S/C8H14O/c1-7(2,3)8-4-6(5-8)9-8/h6H,4-5H2,1-3H3	InChI=1S/C8H14O/c1-7(2,3)8-4-6(5-8)9-8/h6H,4-5H2,1-3H3/t6-,8+
