16
gdb 18629	3.25329	2.14681	1.81984	2.865	66.25	-0.2412	0.0128	0.2541	793.6734	0.132253	-379.90481	-379.897917	-379.896973	-379.93573	26.303	
C	-0.1271910213	 1.496127409	 0.2038412275	-0.331247
N	 0.0915190416	 0.0667227579	 0.0050286557	-0.092001
C	 0.5193526701	-0.4782159282	-1.2653610634	-0.055345
C	 1.1723887644	 0.4522016348	-2.2714002231	-0.122234
O	 2.2858898568	 1.0638458143	-1.5965004129	-0.24456
C	 2.558648429	 0.4164360861	-0.4157969622	 0.412552
N	 3.6004227977	 0.5912187238	 0.2756016965	-0.542798
C	 1.4360400753	-0.5067405587	-0.0810848961	-0.114092
H	 0.5606567303	 2.1572176173	-0.3392650131	 0.128086
H	-1.1515875888	 1.7292350702	-0.1023682428	 0.126277
H	-0.0368256906	 1.7098400101	 1.272260996	 0.138487
H	-0.0147194102	-1.3493329199	-1.6330901985	 0.107492
H	 1.5397493031	-0.1094847757	-3.1381648214	 0.123496
H	 0.5148610046	 1.252393836	-2.626718903	 0.123921
H	 4.2320006421	 1.2479449055	-0.1867500793	 0.223949
H	 1.6482493357	-1.3691108823	 0.53928779	 0.118017
129.6651	186.3959	229.0948	254.4526	386.3385	431.0245	483.3157	641.4486	688.2712	756.7379	775.6444	848.2342	868.2675	901.566	941.3599	970.811	1022.0855	1047.7052	1086.0069	1108.4572	1131.7755	1168.9322	1180.786	1229.3794	1273.8874	1294.0352	1323.9139	1376.7046	1409.5034	1459.9623	1496.2849	1504.4002	1517.5289	1775.5535	3016.0425	3036.5537	3080.1278	3086.8814	3115.3545	3155.1026	3191.5247	3471.1008
CN1C2COC(=N)C12	CN1[C@H]2CO[C]([NH])[C@@H]12	
InChI=1S/C5H8N2O/c1-7-3-2-8-5(6)4(3)7/h3-4,6H,2H2,1H3	InChI=1S/C5H8N2O/c1-7-3-2-8-5(6)4(3)7/h3-4,6H,2H2,1H3/t3-,4-,7?/m0/s1
