21
gdb 101158	2.46742	1.07123	0.8953	1.9921	74.27	-0.2383	0.0432	0.2815	1374.1321	0.180154	-461.331082	-461.320581	-461.319636	-461.366683	38.557	
C	-0.3539940119	 1.3400353558	 0.0380391722	-0.393809
C	 0.0703874908	-0.1270832697	-0.1112904856	-0.012976
C	 0.9448863965	-0.3319228089	-1.3603255156	-0.070785
O	 0.3057900581	 0.0842949284	-2.5592926497	-0.420178
C	 0.8028146577	-0.6381767764	 1.1151775801	-0.102866
C	 0.0571015893	-1.1947527836	 2.3183819977	 0.010205
O	-1.3280071205	-1.4105602033	 2.241483611	-0.429264
C	 0.8467025141	-2.1228583243	 1.4356340416	 0.086047
O	 0.130385561	-3.0167799467	 0.6392321268	-0.431377
H	 0.5118697672	 1.9774589247	 0.2524744673	 0.114072
H	-0.8119961359	 1.6976202548	-0.8873416171	 0.130632
H	-1.070546523	 1.4766472091	 0.8560208506	 0.089297
H	-0.8280716957	-0.7407779081	-0.2530041569	 0.061946
H	 1.8525546051	 0.2790451593	-1.282839334	 0.102193
H	 1.2534128563	-1.3844829372	-1.4146816264	 0.109336
H	-0.4023562278	-0.5413838525	-2.7421965047	 0.282198
H	 1.703067873	-0.0793698913	 1.3655430752	 0.084636
H	 0.4185729946	-0.9598926426	 3.3176343082	 0.093809
H	-1.7705174058	-0.5661209095	 2.1081521105	 0.300012
H	 1.7721369924	-2.5490566828	 1.8124974538	 0.099094
H	-0.7886362958	-2.9616693951	 0.9362046749	 0.297776
52.698	102.8255	113.517	178.7408	223.8214	241.3418	255.2016	275.4405	283.7677	315.0481	398.9832	420.8238	449.1684	562.0182	635.3738	661.4116	771.3197	799.7363	867.9315	906.7834	920.3846	999.0208	1028.8113	1052.0824	1073.0726	1114.2836	1118.4711	1127.4573	1164.352	1178.4695	1216.9563	1241.5968	1284.7249	1294.7982	1339.8121	1355.8265	1380.5903	1396.3832	1402.6594	1410.4907	1419.0075	1451.5571	1486.3272	1502.0185	1505.139	3013.6654	3026.0335	3027.7182	3065.7065	3084.8175	3113.1201	3122.2712	3123.258	3147.9423	3742.7704	3814.2765	3816.7578
CC(CO)C1C(O)C1O	C[C@@H](CO)[C@H]1[C@@H](O)[C@H]1O	
InChI=1S/C6H12O3/c1-3(2-7)4-5(8)6(4)9/h3-9H,2H2,1H3	InChI=1S/C6H12O3/c1-3(2-7)4-5(8)6(4)9/h3-9H,2H2,1H3/t3-,4-,5+,6-/m0/s1
