17
gdb 75610	1.87357	1.83687	1.2043	1.3558	64.37	-0.2501	-0.0424	0.2077	1062.4013	0.1319	-496.091862	-496.082046	-496.081102	-496.125955	35.851	
C	-0.1504399451	 1.4919264527	-0.0055388358	-0.441379
C	-0.0675844001	-0.0243565436	 0.0041938541	 0.281909
O	-1.316941185	-0.6544353713	-0.1531129677	-0.475229
C	 1.097682552	-0.6040886273	-0.920607597	 0.004933
O	 1.613591083	 0.1247615979	-1.9895710121	-0.43054
C	 1.9094445731	-0.6106439451	 0.362148444	 0.270164
O	 3.0216425625	-0.1943988045	 0.5740874529	-0.327859
C	 0.6826341405	-0.6139319343	 1.2614904852	 0.034032
O	 0.7746276315	 0.1034848421	 2.4504961836	-0.426153
H	 0.8272167222	 1.9514204286	 0.1680052001	 0.120127
H	-0.5074057849	 1.8466741297	-0.9777286093	 0.123559
H	-0.8312519474	 1.8304164468	 0.7784582754	 0.14271
H	-1.7200443819	-0.3259081752	-0.9649462773	 0.284836
H	 0.7880110374	-1.6044542516	-1.2458037446	 0.117244
H	 2.4390369491	 0.5263602286	-1.6870332221	 0.2994
H	 0.2766799065	-1.6155768537	 1.4455040531	 0.123668
H	 1.6511986865	 0.5099200102	 2.4690754578	 0.298576
94.8065	160.0962	168.0806	186.3428	221.78	228.5548	262.0562	299.8422	321.0981	342.2599	382.6085	434.8536	542.5535	556.6949	679.2521	694.0944	783.6401	799.9148	916.5387	969.1803	977.0292	1068.9135	1076.3744	1121.9641	1164.3982	1189.039	1214.7677	1264.5476	1305.9979	1350.0062	1365.896	1407.1559	1413.7861	1424.014	1483.508	1486.6998	1841.6538	3041.9116	3043.1154	3053.254	3108.9264	3134.2785	3758.4037	3762.4266	3795.2874
CC1(O)C(O)C(=O)C1O	C[C@@]1(O)[C@@H](O)C(=O)[C@H]1O	
InChI=1S/C5H8O4/c1-5(9)3(7)2(6)4(5)8/h3-4,7-9H,1H3	InChI=1S/C5H8O4/c1-5(9)3(7)2(6)4(5)8/h3-4,7-9H,1H3/t3-,4+,5+
