13
gdb 24965	5.10315	1.33418	1.06465	4.9026	65.33	-0.2158	-0.035	0.1808	1030.7372	0.090375	-456.607042	-456.600569	-456.599625	-456.638114	24.862	
O	-0.006540936	 0.0258765687	 0.0032491672	-0.351162
C	-0.0141623667	 1.211036647	 0.0098542416	 0.450685
O	-1.1505144784	 2.0047491394	 0.0301139236	-0.253055
C	-0.6949962754	 3.3010107472	 0.0307826374	 0.262233
C	 0.6343487635	 3.3115225227	 0.0122097739	 0.284343
O	 1.1085928571	 2.0212042588	-0.0014793748	-0.254156
C	 1.14864109	 4.6702783461	 0.0125571173	-0.200505
C	 0.0661233801	 5.4808633411	 0.032203037	-0.084342
C	-1.2408521779	 4.6837878216	 0.0461589328	-0.411779
H	 2.1873609853	 4.9656107384	-0.0003874671	 0.129733
H	 0.079006605	 6.5612680538	 0.0379436901	 0.119637
H	-1.86302788	 4.9218099853	-0.8254849494	 0.154181
H	-1.8382063965	 4.91196818	 0.9375765605	 0.154188
93.5441	245.2986	280.9696	333.8964	422.3507	564.0961	600.5983	629.9223	706.4674	734.2667	768.5329	790.4361	885.9787	913.2755	913.599	915.7176	924.6207	955.66	1089.226	1121.1535	1194.1874	1222.2642	1294.8734	1369.432	1429.004	1432.8958	1558.2744	1725.3752	1945.4772	3042.4389	3075.3271	3235.2597	3255.7062
O=C1OC2=C(O1)C=CC2	O=c1oc2c(o1)C=CC2	
InChI=1S/C6H4O3/c7-6-8-4-2-1-3-5(4)9-6/h1-2H,3H2	InChI=1S/C6H4O3/c7-6-8-4-2-1-3-5(4)9-6/h1-2H,3H2
