16
gdb 128274	6.63675	0.90265	0.80364	2.2806	69.41	-0.2257	0.024	0.2497	1403.6891	0.12448	-471.203765	-471.194843	-471.193899	-471.237871	30.874	
C	-0.0890765626	 1.4178359488	 0.0764307021	-0.333242
N	 0.1011484245	-0.0210980814	 0.015833079	-0.392245
C	 0.656394648	-0.7260473905	 1.0212203856	 0.553634
N	 0.6880857849	-2.0285161239	 1.1467503677	-0.436321
C	 1.4024319021	-2.1557057022	 2.3036460172	 0.458873
O	 1.6596898505	-3.3669100604	 2.7799112299	-0.245988
C	 2.4111374944	-3.4048725399	 3.9963815601	-0.241703
N	 1.7977644586	-1.0460899356	 2.8865912562	-0.263758
O	 1.2757506899	-0.0527866287	 1.9980039244	-0.229598
H	 0.8355470423	 1.8961218188	 0.4056163936	 0.163071
H	-0.3286245633	 1.7810087006	-0.924622014	 0.138092
H	-0.8936066136	 1.711972519	 0.7628170005	 0.136629
H	-0.4824403966	-0.5645048535	-0.598811265	 0.27068
H	 3.3892636574	-2.9335320452	 3.861207404	 0.143325
H	 1.8763010477	-2.8855588937	 4.7973040601	 0.142911
H	 2.5280934258	-4.4609547222	 4.2394330184	 0.135641
77.6145	106.521	125.6945	169.1031	171.2902	255.3354	268.8153	385.9411	395.4985	449.7573	622.0983	673.7759	720.5265	763.5848	789.2474	923.8296	1004.7647	1024.0484	1081.0698	1116.9793	1155.4621	1181.6549	1192.7965	1226.055	1373.9943	1431.9942	1437.1721	1465.8674	1480.4692	1489.6849	1498.8105	1514.147	1520.2457	1610.3081	1701.2041	3021.3982	3040.9933	3105.0136	3111.7484	3144.7178	3155.7754	3655.2916
CNC1=NC(OC)=NO1	CNc1nc(OC)no1	
InChI=1S/C4H7N3O2/c1-5-3-6-4(8-2)7-9-3/h1-2H3,(H,5,6,7)	InChI=1S/C4H7N3O2/c1-5-3-6-4(8-2)7-9-3/h1-2H3,(H,5,6,7)
