19
gdb 111138	3.16669	1.2057	0.97771	3.0931	72.06	-0.2385	0.0612	0.2997	1231.3986	0.156423	-460.075913	-460.066692	-460.065748	-460.110275	34.867	
C	-0.2097698989	 1.3237463135	 1.5803104682	-0.479192
C	-0.2028604666	-0.0444246214	 0.9236635115	 0.430134
O	-1.5022301012	-0.4569750138	 0.5674338893	-0.472747
C	 0.8777655277	-0.3500868473	-0.1525028514	-0.030454
O	 1.8922466035	-0.2876409609	 0.9227504456	-0.308131
C	 0.8024229098	-1.1220579126	 1.4751989507	-0.053424
C	 0.7663867398	-1.8787522857	 0.1179308799	 0.056256
C	-0.3731598335	-2.7795037781	-0.3590849028	-0.127792
O	 0.2338050374	-3.9864566903	-0.8151242445	-0.432404
H	 0.8039512599	 1.645098694	 1.8168875724	 0.150618
H	-0.6781271856	 2.0574362086	 0.9163744887	 0.124305
H	-0.7906584845	 1.2970513433	 2.5116151944	 0.105458
H	-2.0980319453	-0.2310676893	 1.2887220008	 0.283267
H	 1.0955723106	 0.1787667486	-1.0821209348	 0.089681
H	 0.9334412017	-1.5109145742	 2.4870692097	 0.085357
H	 1.7197912249	-2.3736726256	-0.0756086983	 0.105324
H	-1.0820040036	-2.9763157233	 0.4554628611	 0.090016
H	-0.9404280433	-2.2921655935	-1.1631247484	 0.10097
H	-0.465359203	-4.5670436122	-1.1298788222	 0.282759
27.7462	173.7636	181.9219	223.2206	257.6995	273.8807	323.1413	339.1746	357.9973	410.8276	413.3985	587.6343	637.6785	685.9837	746.3136	816.8196	875.3922	882.167	903.5124	956.6409	1007.4746	1059.3352	1073.38	1082.4319	1095.6995	1132.5336	1140.8708	1178.114	1209.9988	1212.6409	1243.5372	1256.7714	1263.7164	1270.5213	1349.0406	1390.5414	1402.923	1454.8477	1487.4677	1502.5149	1506.0616	3004.1557	3023.8231	3033.992	3088.9897	3097.2821	3102.8095	3112.3313	3158.0226	3817.1791	3827.8418
CC1(O)C2OC1C2CO	C[C@@]1(O)[C@H]2O[C@@H]1[C@H]2CO	
InChI=1S/C6H10O3/c1-6(8)4-3(2-7)5(6)9-4/h3-5,7-8H,2H2,1H3	InChI=1S/C6H10O3/c1-6(8)4-3(2-7)5(6)9-4/h3-5,7-8H,2H2,1H3/t3-,4-,5+,6+
