16
gdb 128396	6.42446	0.80576	0.71921	2.7798	80.39	-0.1971	0.0081	0.2052	1511.7079	0.125751	-430.251165	-430.242348	-430.241404	-430.286165	30.332	
C	 0.0526629194	 1.4657546524	 0.0034790818	-0.309604
N	-0.0455975268	 0.0199758539	 0.0194455391	-0.288905
C	-1.232177563	-0.628935603	-0.0006378806	 0.105322
N	-2.3495118972	 0.0071531354	 0.0238468613	-0.386305
C	-3.5165141742	-0.7349527501	 0.0309791642	 0.402096
C	-4.8042967815	-0.2365980319	 0.0398373162	-0.184311
N	-5.5830783029	-1.3456283281	 0.0418783568	-0.152283
N	-4.8479422388	-2.4704310358	 0.0356947106	-0.12188
N	-3.5980351412	-2.1057053903	 0.0293444209	-0.27104
H	 1.0998150756	 1.7522508574	 0.1181042945	 0.120958
H	-0.3363504636	 1.8877700904	-0.9309657629	 0.13532
H	-0.529623102	 1.8916230319	 0.8255510001	 0.148459
H	 0.7895507342	-0.525439051	-0.0948177185	 0.254261
H	-1.1564640619	-1.7190349858	-0.026827371	 0.129508
H	-5.1953391128	 0.7654589679	 0.043984979	 0.139669
H	-6.5873808433	-1.4154532233	 0.0489224385	 0.278736
40.8285	64.0436	113.2977	130.2085	201.1177	239.8753	384.6937	446.096	471.0162	548.6657	585.4072	695.3406	733.6563	788.9856	852.4628	977.6686	986.7421	1016.8802	1040.9007	1054.0996	1128.7678	1159.0178	1174.4493	1252.7521	1270.3189	1315.7023	1344.4338	1396.1445	1453.0885	1472.8952	1491.6742	1508.8895	1541.6967	1608.0988	1707.5688	3029.4211	3090.7954	3100.3309	3135.3092	3295.269	3665.4956	3684.3046
CNC=NC1=CNN=N1	CNC=Nc1c[nH]nn1	
InChI=1S/C4H7N5/c1-5-3-6-4-2-7-9-8-4/h2-3H,1H3,(H2,5,6,7,8,9)	InChI=1S/C4H7N5/c1-5-3-6-4-2-7-9-8-4/h2-3H,1H3,(H2,5,6,7,8,9)
