19
gdb 45816	2.48944	1.71513	1.20882	2.8858	80.65	-0.2306	-0.0143	0.2163	1063.9946	0.161338	-385.914076	-385.906479	-385.905535	-385.946446	29.823	
O	 0.0426074931	-0.0869253705	-0.0507854847	-0.323416
C	 0.006200247	 1.1231484434	-0.0559062354	 0.383567
C	-1.3214351681	 1.8757258051	-0.0513338026	-0.370132
C	-1.2691767023	 3.2311010846	-0.7067096516	-0.062854
C	-0.1467429166	 3.8470656962	-1.0761096182	-0.060791
C	 1.2329007105	 3.3052949068	-0.8674767759	-0.0791
C	 1.9987044986	 3.9897704102	 0.3128056839	-0.223824
C	 1.5763052441	 2.8095412885	 1.2240248406	-0.233358
C	 1.2553301447	 1.9682766355	-0.0578051783	-0.09134
H	-2.0707521939	 1.2274026847	-0.5180705601	 0.134172
H	-1.6432505062	 1.9788928572	 0.997434844	 0.135524
H	-2.2277307705	 3.7155335715	-0.8776339671	 0.093915
H	-0.2066806924	 4.8300602053	-1.5397331142	 0.090559
H	 1.7791805432	 3.2846762593	-1.8163160737	 0.083539
H	 3.0775638245	 4.0092918622	 0.1370177757	 0.105691
H	 1.6698788378	 4.990907934	 0.6009994985	 0.101656
H	 2.3245661391	 2.3899417479	 1.8984824139	 0.112695
H	 0.6764927481	 3.0390588084	 1.8004062784	 0.112444
H	 2.1004236692	 1.3326095398	-0.3278984932	 0.091053
72.935	114.5409	216.0182	255.4532	405.9536	456.999	478.6475	497.9346	589.4357	635.4988	715.9368	740.7334	803.6657	845.282	876.6079	927.3965	942.0413	959.0777	967.1392	975.6848	1009.708	1042.8292	1069.1274	1117.9371	1162.5594	1193.8761	1206.717	1242.7871	1250.4808	1255.829	1267.2444	1281.1629	1315.9206	1337.0572	1356.2997	1417.203	1444.6244	1479.6177	1495.2565	1725.749	1805.0952	2990.4535	3042.7384	3060.7479	3069.0689	3069.3374	3095.9774	3110.2117	3129.323	3136.3746	3160.8839
O=C1CC=CC2CCC12	O=C1CC=C[C@H]2CC[C@@H]12	
InChI=1S/C8H10O/c9-8-3-1-2-6-4-5-7(6)8/h1-2,6-7H,3-5H2	InChI=1S/C8H10O/c9-8-3-1-2-6-4-5-7(6)8/h1-2,6-7H,3-5H2/t6-,7+/m0/s1
