15
gdb 124009	3.86514	1.70773	1.20149	3.7374	73.34	-0.2067	-0.0171	0.1896	961.1687	0.117558	-413.021978	-413.015395	-413.014451	-413.053083	25.459	
C	 0.0049628983	 1.4824863289	 0.1221128169	-0.223614
N	 1.3728248357	 2.0028636603	 0.0073906096	-0.415689
C	 2.270654161	 1.3544318228	-0.7895087408	 0.491997
N	 3.4062184974	 1.7828128551	-1.3040515649	-0.380538
C	 3.8873230903	 0.6459368406	-1.9054985425	 0.035611
N	 3.1430109931	-0.4353095307	-1.8021706699	-0.270667
N	 2.0783871837	 0.0400526608	-1.0739359871	-0.040954
C	 0.9894145671	-0.6829069557	-0.5984956714	 0.038929
C	-0.0006975944	-0.0260364788	 0.00785593	-0.121489
H	-0.3962676357	 1.7888448594	 1.0947106823	 0.126772
H	-0.6640298502	 1.9180403793	-0.6431868149	 0.115916
H	 1.4937200978	 3.0027808458	 0.0509649753	 0.261952
H	 4.8248636827	 0.6314366554	-2.4413720705	 0.125497
H	 1.0401372697	-1.7528034925	-0.7467877612	 0.141557
H	-0.8563359765	-0.5638051708	 0.3942690193	 0.114721
113.0775	145.4786	305.7411	408.9715	436.1325	495.0805	570.7652	625.4829	656.6719	713.9626	763.7615	771.6215	893.4511	903.5417	915.4618	956.9046	979.0767	1036.307	1069.2301	1158.0916	1187.906	1239.646	1245.5789	1284.177	1299.0369	1336.4209	1401.5548	1453.9107	1473.3593	1516.1834	1554.2542	1644.9365	1726.4375	2919.5364	3045.863	3218.8456	3243.9215	3258.5478	3633.1761
C1NC2=NC=NN2C=C1	C1Nc2ncnn2C=C1	
InChI=1S/C5H6N4/c1-2-6-5-7-4-8-9(5)3-1/h1,3-4H,2H2,(H,6,7,8)	InChI=1S/C5H6N4/c1-2-6-5-7-4-8-9(5)3-1/h1,3-4H,2H2,(H,6,7,8)
