18
gdb 42469	4.61273	0.66145	0.60541	3.7733	78.17	-0.2873	-0.084	0.2033	1788.9176	0.145879	-401.958954	-401.949463	-401.948519	-401.994972	33.214	
O	-0.1611305173	-0.0717787311	-0.2635863496	-0.262934
C	-0.0139478355	 1.1055834627	-0.0550458473	 0.285734
C	 1.3087724011	 1.8299074004	-0.0041603767	-0.299882
C	 2.5134418958	 0.9254099222	-0.2767437955	-0.218422
C	 3.8230376564	 1.6790341051	-0.1916876722	 0.0216
C	 4.4947952588	 1.8919899606	 1.1438613411	-0.258544
C	 5.1007009346	 0.9504174437	 0.1317055034	-0.276201
C	-1.19760996	 1.967999218	 0.1817553771	 0.227305
N	-2.1102417398	 2.6533412373	 0.3675092537	-0.294778
H	 1.2566899038	 2.6634158006	-0.7195095329	 0.145155
H	 1.3852743614	 2.3124438098	 0.9808102086	 0.150557
H	 2.5114325138	 0.0992102764	 0.4430663754	 0.116041
H	 2.4006121332	 0.4637038233	-1.2643832666	 0.119605
H	 3.914424524	 2.4991306776	-0.9005082431	 0.084793
H	 4.9906601255	 2.8376337834	 1.3319794874	 0.11582
H	 4.02852983	 1.4546042706	 2.0213162417	 0.111676
H	 5.0387457969	-0.1143944322	 0.3311366507	 0.116203
H	 6.0097380971	 1.2536362117	-0.3753731453	 0.116269
36.6492	61.0178	92.1484	121.9605	184.4512	248.0033	274.9772	349.7992	399.5005	486.4953	571.9578	610.5595	763.4879	769.5831	806.9043	827.3307	857.3303	926.5334	954.8849	1027.0412	1039.355	1059.3358	1080.996	1092.2646	1133.0487	1142.982	1198.4212	1225.7491	1232.9038	1295.1541	1315.1555	1383.1031	1420.3707	1439.7459	1469.1315	1486.3462	1508.2051	1799.6839	2336.3563	3015.7155	3040.636	3042.5167	3079.6963	3128.5742	3130.1556	3135.6929	3208.0884	3223.4454
O=C(CCC1CC1)C#N	O=C(CCC1CC1)C#N	
InChI=1S/C7H9NO/c8-5-7(9)4-3-6-1-2-6/h6H,1-4H2	InChI=1S/C7H9NO/c8-5-7(9)4-3-6-1-2-6/h6H,1-4H2
