18
gdb 13891	4.10095	1.42427	1.36492	0.8072	63.37	-0.2552	0.0775	0.3327	982.771	0.153957	-422.075045	-422.066871	-422.065927	-422.108049	29.692	
C	 0.0814732373	 1.5361466888	-0.1421562085	-0.404736
C	 0.0125224407	 0.0236207938	 0.0753809026	 0.112475
O	 0.6103371167	-0.3561171532	 1.3056851978	-0.436384
C	-1.4276909639	-0.5036726535	 0.0150776608	 0.111955
C	-1.5586809386	-2.0305039547	 0.0805591892	-0.132277
O	-2.7729300504	-2.2172769142	 0.7985449811	-0.235938
C	-2.7868920103	-1.1979330571	 1.756751565	 0.026465
O	-2.124512853	-0.0695365935	 1.1941126227	-0.294606
H	 1.1134283455	 1.8807430075	-0.0393387116	 0.123923
H	-0.280860589	 1.8094683495	-1.1389352821	 0.11226
H	-0.5361142937	 2.0561748566	 0.5973871113	 0.128118
H	 0.5946443075	-0.4830502226	-0.7052794887	 0.088762
H	 0.0100556614	-0.0340572424	 1.9907256177	 0.283924
H	-1.942008834	-0.10475474	-0.8699668598	 0.078328
H	-1.6626398103	-2.5057824807	-0.8964103528	 0.118173
H	-0.7047923448	-2.463494268	 0.6199873755	 0.114865
H	-3.827482052	-0.9457364531	 1.9883436934	 0.117045
H	-2.257908369	-1.5024717431	 2.6766919464	 0.087647
60.6518	96.3519	188.6202	223.0169	255.623	290.8754	343.7801	447.1054	492.1486	626.0742	651.5994	741.7333	840.4887	902.4963	961.5782	975.398	990.2809	1021.6105	1058.2201	1079.8634	1122.8812	1139.2	1158.1909	1176.3808	1210.9647	1267.6935	1290.2051	1310.4974	1353.0437	1357.9327	1400.9789	1402.9711	1420.9528	1441.6807	1491.8923	1498.5892	1508.9779	1549.5668	2947.8682	3007.7493	3019.1161	3032.1769	3036.8682	3064.0008	3106.672	3118.8215	3124.6823	3771.2806
CC(O)C1COCO1	C[C@@H](O)[C@H]1COCO1	
InChI=1S/C5H10O3/c1-4(6)5-2-7-3-8-5/h4-6H,2-3H2,1H3	InChI=1S/C5H10O3/c1-4(6)5-2-7-3-8-5/h4-6H,2-3H2,1H3/t4-,5-/m1/s1
