19
gdb 113324	2.51698	1.06711	0.85117	2.2395	79.3	-0.2604	0.0219	0.2823	1418.8742	0.155691	-422.96765	-422.957405	-422.956461	-423.003404	36.887	
C	 0.4468222202	 1.4225924148	 0.1854632418	-0.378862
C	-0.2783285553	 0.1119742303	-0.1491403655	-0.227456
C	 0.3443328757	-0.5661827505	-1.3464312965	 0.047982
O	 1.5811284182	-1.2585104276	-1.1599484166	-0.293457
C	 0.4286567095	-2.0290110752	-1.5897459053	 0.091504
C	-0.0091958489	-3.0718433534	-0.5732889413	-0.13066
O	 0.9563503402	-4.0965051712	-0.4546843114	-0.410678
C	 0.4819608949	-2.4937901229	-2.9574130427	 0.324154
C	 0.4891076534	-2.884733822	-4.0937705409	-0.424065
H	 1.4983951956	 1.2325179176	 0.4199807684	 0.13562
H	 0.411660867	 2.1215565523	-0.6569499057	 0.120681
H	-0.0120754865	 1.913477887	 1.0482167495	 0.118403
H	-0.2573242578	-0.5513450915	 0.7192387827	 0.110733
H	-1.3327352892	 0.313895683	-0.3767066562	 0.110014
H	 0.3338149907	 0.0443377435	-2.2526435459	 0.096557
H	-0.2037093828	-2.5892958509	 0.3926243676	 0.093405
H	-0.9338542306	-3.5505373935	-0.9092628011	 0.121157
H	 1.7932294723	-3.6667740239	-0.2425771995	 0.295039
H	 0.5086363334	-3.2355397061	-5.0960670313	 0.199928
54.0005	70.9755	127.4939	135.3682	171.8942	221.3625	244.2909	310.5852	375.6731	399.4702	421.071	493.0431	559.3335	619.4677	645.73	663.5533	702.4103	764.6428	833.9575	914.0278	946.9808	969.665	1031.43	1059.4008	1086.0168	1127.7819	1158.9464	1204.2754	1266.2182	1293.4356	1325.8833	1345.9175	1382.203	1409.7986	1427.5991	1467.3771	1473.1802	1494.0544	1498.8159	1507.8575	2238.8502	3024.2681	3035.8532	3038.9802	3079.1851	3090.3104	3095.6359	3113.9962	3118.848	3502.1236	3797.3366
CCC1OC1(CO)C#C	CC[C@H]1O[C@]1(CO)C#C	
InChI=1S/C7H10O2/c1-3-6-7(4-2,5-8)9-6/h2,6,8H,3,5H2,1H3	InChI=1S/C7H10O2/c1-3-6-7(4-2,5-8)9-6/h2,6,8H,3,5H2,1H3/t6-,7+/m1/s1
