15
gdb 44315	3.33603	1.94983	1.44728	2.4867	68.88	-0.216	-0.0206	0.1954	863.6721	0.114353	-416.675848	-416.669844	-416.6689	-416.706092	24.852	
O	 0.0111190486	 0.0663548702	-0.2106298984	-0.312204
C	 0.0416699893	 1.2494572425	-0.0231633466	 0.301644
C	-1.1695997624	 2.2559607635	 0.0735036515	-0.27656
N	-0.5564843487	 3.6067190876	 0.298851981	-0.168945
C	 0.6636062284	 3.5462407972	-0.5917965637	-0.040739
C	 1.7210354959	 3.9869634986	 0.4532361479	-0.083527
N	 2.5445215914	 2.7004254456	 0.3859409567	-0.424892
C	 1.1284197331	 2.2592203833	 0.1744495561	 0.207709
C	 0.5894328151	 3.2775405978	 1.2258606848	-0.004621
H	-1.7569542667	 2.2416879982	-0.8492932483	 0.136497
H	-1.8270892126	 1.9826204602	 0.9040819974	 0.138674
H	 0.6308095323	 3.705662008	-1.6714854337	 0.096688
H	 2.1864452246	 4.9573876723	 0.6255430048	 0.101234
H	 3.0675446124	 2.6534840641	-0.4921935297	 0.22302
H	 0.4813762194	 3.1136427611	 2.2977620804	 0.106023
148.1666	304.704	329.7662	481.3981	541.6591	593.0282	613.8874	665.9543	756.4944	789.6289	830.5322	846.3783	871.6542	888.6897	903.9717	952.0171	1002.5444	1011.0688	1017.2962	1052.7423	1100.2733	1122.0687	1140.6439	1157.939	1187.8321	1209.1063	1224.5242	1277.8937	1279.6925	1289.2191	1328.0313	1464.7158	1871.387	3061.8812	3099.6176	3112.8212	3117.4565	3131.5136	3416.9623
O=C1CN2C3C4NC13C24	O=C1CN2[C@H]3[C@@H]4N[C@]13[C@H]24	
InChI=1S/C6H6N2O/c9-2-1-8-4-3-5(8)6(2,4)7-3/h3-5,7H,1H2	InChI=1S/C6H6N2O/c9-2-1-8-4-3-5(8)6(2,4)7-3/h3-5,7H,1H2/t3-,4-,5+,6+
