22
gdb 58515	2.59739	1.34425	1.25302	2.6821	81.52	-0.225	0.0675	0.2925	1157.8149	0.192806	-404.301259	-404.291768	-404.290823	-404.33488	36.939	
C	 0.7964184802	-0.2549910086	-1.3401533637	-0.418732
C	-0.0539036293	-0.0453101637	-0.0822345333	 0.09008
O	-1.3054881571	-0.7157981859	-0.1824200968	-0.434159
C	 0.6229444892	-0.5571028293	 1.1952699706	 0.359554
C	 0.8324884479	-2.0679712515	 1.1719893342	-0.439153
C	 1.8862083103	 0.2178772248	 1.6818063067	-0.326457
C	 1.1160459935	 0.4931042755	 2.9693736709	-0.011112
C	-0.1386396123	 1.2134160993	 2.6951641443	-0.247912
N	-0.1227624538	-0.2460818334	 2.4926925676	-0.152482
H	 0.9350026782	-1.3190897696	-1.5471066705	 0.130707
H	 0.3016033244	 0.1963025252	-2.2079297115	 0.105627
H	 1.7802253635	 0.2153038911	-1.2435713823	 0.120594
H	-0.2240034141	 1.0370158769	 0.0266080065	 0.058357
H	-1.7451343046	-0.4075240748	-0.9806988739	 0.281346
H	 1.5637500574	-2.3588758151	 0.411238993	 0.104447
H	 1.2014986333	-2.4027125967	 2.1451773281	 0.115284
H	-0.1132107448	-2.5736324072	 0.9679654796	 0.142538
H	 2.7551057056	-0.4316165815	 1.8037142169	 0.107302
H	 2.1897036623	 1.1044612342	 1.1148573468	 0.095666
H	 1.5043146313	 0.3559606161	 3.9736361674	 0.090865
H	-0.7547044184	 1.4985335456	 3.5427212018	 0.119646
H	-0.2036999126	 1.8946794887	 1.8508765876	 0.107995
73.5587	180.6706	194.9583	221.7105	237.6349	250.2532	295.2652	315.4665	337.7054	425.9749	437.9347	496.0299	523.8658	672.0854	755.7612	768.2104	827.7994	879.6735	893.6208	917.1974	943.4713	977.2603	998.9557	1037.9108	1061.0226	1075.1137	1105.9584	1113.0121	1128.407	1141.1198	1167.4501	1185.1296	1221.2478	1264.251	1273.8002	1321.2829	1361.3133	1369.8134	1400.4573	1405.3564	1427.8479	1481.4114	1488.2526	1493.3143	1495.858	1507.9305	1511.1727	2974.5669	3032.6896	3041.6716	3045.8742	3095.2852	3109.2328	3111.936	3113.4234	3127.6231	3139.9137	3158.3478	3195.9218	3821.9287
CC(O)C1(C)CC2CN12	C[C@@H](O)[C@@]1(C)C[C@H]2CN12	
InChI=1S/C7H13NO/c1-5(9)7(2)3-6-4-8(6)7/h5-6,9H,3-4H2,1-2H3	InChI=1S/C7H13NO/c1-5(9)7(2)3-6-4-8(6)7/h5-6,9H,3-4H2,1-2H3/t5-,6+,7-,8?/m1/s1
