15
gdb 18215	4.44742	1.68296	1.32267	5.5259	71.54	-0.2043	-0.0284	0.1759	897.5887	0.120235	-362.670889	-362.664105	-362.66316	-362.701807	25.908	
O	-0.1178225036	-0.052271243	-0.0420690635	-0.311072
C	-0.0288583354	 1.1612201441	 0.0185689659	 0.052742
C	 1.2053952953	 1.9009536179	 0.0526324773	 0.180647
C	 1.3177155525	 3.2597033584	 0.047314077	-0.096874
N	 2.6088777361	 3.6691607548	-0.1069877379	-0.268922
C	 3.5013427087	 2.535535501	-0.0731809106	-0.006231
C	 3.5005776757	 1.6700564839	 1.1620761795	-0.299597
C	 2.5800864101	 1.3167577939	 0.0102485501	-0.142576
H	-0.9429670088	 1.8000374079	 0.0485248651	 0.042947
H	 0.5234604188	 3.9913354888	 0.1281564397	 0.136779
H	 2.9162874379	 4.6042895345	 0.1013786489	 0.256967
H	 4.3779268607	 2.6014525399	-0.7073541055	 0.106466
H	 4.3721359899	 1.0401733748	 1.2990527189	 0.120541
H	 3.0639361638	 2.0595422467	 2.0755167052	 0.114705
H	 2.7545646284	 0.4057116465	-0.54792743	 0.113478
122.1776	178.5145	253.4494	304.1919	401.8929	428.7784	504.3655	618.0105	695.3473	753.6585	756.5434	824.9778	880.5649	908.1392	953.5239	994.2271	1026.7529	1050.164	1061.1992	1083.5987	1112.64	1151.3524	1200.9861	1269.1246	1291.4487	1363.6499	1395.3661	1429.6595	1450.8823	1477.0301	1629.7986	1758.7917	2845.1301	3132.5158	3171.6768	3194.6482	3219.9527	3225.9007	3656.3295
O=CC1=CNC2CC12	O=CC1=CN[C@H]2C[C@@H]12	
InChI=1S/C6H7NO/c8-3-4-2-7-6-1-5(4)6/h2-3,5-7H,1H2	InChI=1S/C6H7NO/c8-3-4-2-7-6-1-5(4)6/h2-3,5-7H,1H2/t5-,6-/m0/s1
