16
gdb 47752	1.96899	1.85516	1.31543	5.1169	70.61	-0.2478	-0.0042	0.2436	1018.3504	0.126241	-434.072581	-434.064354	-434.06341	-434.105951	29.93	
N	 0.0955250914	 1.0982792049	-1.1128392991	-0.525702
C	 0.0621596677	 0.0583628177	-0.3786943757	 0.370532
N	 1.0721154948	-0.555839464	 0.3199450707	-0.327538
C	 0.7374737476	-1.5722039808	 1.3071095117	-0.227192
C	-0.1435685697	-2.6401876699	 0.647464789	-0.044889
O	-1.0915072188	-2.098482731	-0.2786512345	-0.253096
C	-1.2644502898	-0.6994239903	-0.256798148	-0.073479
C	-2.0084861764	-0.2547184734	 0.9459933922	 0.279642
N	-2.5765179595	 0.0606740208	 1.901739593	-0.333395
H	 1.0191358018	 1.5366647205	-1.1106313306	 0.20664
H	 1.9379938877	-0.0497533566	 0.4249361978	 0.247307
H	 1.6578477688	-2.0411228857	 1.6635284864	 0.126482
H	 0.2290322076	-1.1402417275	 2.1792900499	 0.143883
H	 0.4751291989	-3.3327336955	 0.0677034944	 0.123619
H	-0.6741346224	-3.2085776023	 1.4210676309	 0.121271
H	-1.8580834697	-0.442422287	-1.1359558783	 0.165912
60.0039	98.5943	145.3077	222.3468	272.5036	382.8319	411.0999	437.3614	481.263	533.9641	593.8986	681.3273	741.5301	833.9626	855.0886	898.0646	933.7195	969.7462	999.4511	1075.699	1126.5846	1144.3692	1176.708	1260.4767	1265.3318	1279.9097	1342.8637	1366.9035	1408.4274	1425.7729	1459.7519	1510.6208	1517.3655	1742.3331	2351.5362	3016.6174	3031.255	3077.5297	3101.4416	3112.5778	3447.4013	3619.9004
N=C1NCCOC1C#N	[NH][C]1NCCO[C@H]1C#N	
InChI=1S/C5H7N3O/c6-3-4-5(7)8-1-2-9-4/h4H,1-2H2,(H2,7,8)	InChI=1S/C5H7N3O/c6-3-4-5(7)8-1-2-9-4/h4H,1-2H2,(H2,7,8)/t4-/m0/s1
