15
gdb 20551	4.49047	1.55763	1.25927	2.9153	62.15	-0.314	-0.067	0.247	954.1034	0.117799	-395.938642	-395.93104	-395.930096	-395.971143	27.094	
C	 0.0087069749	 1.4736432253	-0.1543512658	-0.394078
C	-0.0035864852	-0.0491179491	 0.0851287204	-0.07733
C	 0.7529526366	-0.4394175458	 1.3598936421	-0.38935
C	-1.4121885466	-0.5557483867	 0.0947037566	 0.421817
N	-2.0256543234	-1.1176690244	 1.09648433	-0.154381
O	-3.2697504605	-1.3928244448	 0.6347062037	-0.144041
N	-3.3601978587	-0.9673396262	-0.6875793584	 0.044952
N	-2.2541255564	-0.4687618504	-1.0077770308	-0.207193
H	 1.0393108549	 1.8268171407	-0.2503148046	 0.12486
H	-0.5324943281	 1.7357974046	-1.0669085686	 0.142779
H	-0.4557621544	 2.0015053457	 0.6848767818	 0.129233
H	 0.4830597172	-0.5238648422	-0.7771573043	 0.11488
H	 0.759228365	-1.5223729145	 1.5074702636	 0.132736
H	 1.7880745181	-0.092801009	 1.2964553835	 0.118907
H	 0.2937682567	 0.0148391769	 2.2427886108	 0.13621
44.1916	163.661	199.676	227.7228	268.4779	319.8988	435.2683	466.5944	643.7451	676.1176	695.7907	780.9619	891.8522	936.802	954.7407	978.173	1060.3314	1067.4231	1122.5097	1137.4277	1184.2771	1252.8154	1328.6155	1374.7311	1401.8723	1424.6075	1483.5305	1487.2852	1489.9544	1501.4092	1515.3333	1592.4705	3024.4906	3041.7068	3047.7341	3113.6674	3120.8283	3124.2539	3126.9271
CC(C)C1=NON=N1	CC(C)c1nonn1	
InChI=1S/C4H7N3O/c1-3(2)4-5-7-8-6-4/h3H,1-2H3	InChI=1S/C4H7N3O/c1-3(2)4-5-7-8-6-4/h3H,1-2H3
