18
gdb 22490	2.53958	0.92486	0.82616	3.6463	72.63	-0.2638	-0.0141	0.2497	1447.0402	0.144781	-476.202822	-476.192635	-476.191691	-476.239721	34.958	
C	-1.3769712385	-0.3360425221	 1.5041839848	-0.383294
C	-0.2583943551	-0.2234879028	 0.4501181036	-0.267734
C	 1.1202648585	-0.2542194593	 1.058516366	 0.35046
C	 1.9239121867	-1.5265802209	 1.0260726178	-0.177224
O	 1.2062230901	-2.600812014	 1.6622374895	-0.18098
C	 1.5385616268	-2.9008208594	 2.9354184807	 0.180646
O	 0.9617840084	-3.7306525456	 3.5698449133	-0.273684
N	 1.7099048061	 0.7282248809	 1.6276795658	-0.159635
O	 0.9322697872	 1.8892190932	 1.6135368956	-0.388916
H	-1.3087034852	 0.4834500903	 2.2232329514	 0.137409
H	-2.3567015796	-0.2875723362	 1.020148511	 0.11831
H	-1.3113115787	-1.2830194358	 2.045861805	 0.141975
H	-0.3477513822	-1.0434857643	-0.2692885832	 0.108794
H	-0.3710483296	 0.717575754	-0.0972311967	 0.130596
H	 2.0859083511	-1.8587712009	-0.0040623045	 0.131734
H	 2.8940539093	-1.3641901763	 1.5054998147	 0.131308
H	 2.3967234231	-2.3084121274	 3.30650361	 0.088521
H	 1.5071186015	 2.5282376066	 2.0486079951	 0.311716
35.6558	46.9969	75.3297	127.8807	188.7887	223.2822	273.1703	303.3165	314.613	390.4722	406.0632	447.1702	599.0465	640.8747	698.2816	793.7546	806.01	961.0593	992.71	997.0457	1042.1426	1052.7489	1083.9441	1108.4408	1142.0192	1253.6583	1299.715	1303.0551	1351.7931	1384.0152	1404.0794	1416.4586	1432.3181	1480.3364	1488.887	1500.6439	1510.9385	1727.4619	1867.5451	2958.2866	3047.6029	3049.7665	3050.6734	3093.3686	3104.3217	3121.2778	3137.4467	3817.1433
CCC(COC=O)=NO	CCC(=NO)COC=O	
InChI=1S/C5H9NO3/c1-2-5(6-8)3-9-4-7/h4,8H,2-3H2,1H3	InChI=1S/C5H9NO3/c1-2-5(6-8)3-9-4-7/h4,8H,2-3H2,1H3
