22
gdb 57655	3.0563	1.00256	0.9416	2.2268	83.18	-0.2345	-0.0249	0.2096	1361.4777	0.190932	-404.325947	-404.315603	-404.314658	-404.362262	37.872	
C	 0.4299902001	 1.6045087426	 0.4193188472	-0.435622
C	 0.1306376684	 0.1186310088	 0.1420158112	 0.252025
C	 0.6853088933	-0.7421839308	 1.2884805062	-0.405446
C	-1.4041269958	-0.0861849731	-0.0247015361	-0.271035
C	-2.1970682195	 0.1781922584	 1.2335490054	 0.142685
O	-2.7989753766	 1.1988281446	 1.4590979319	-0.245069
N	 0.7153267917	-0.4402153176	-1.0965196127	-0.079507
C	 0.7249144612	 0.3135428157	-2.3407395988	-0.23128
C	 1.9942895216	 0.0259600335	-1.6123751302	-0.231459
H	 1.4912335175	 1.7662240917	 0.6289755333	 0.116795
H	 0.1378530463	 2.2492518353	-0.4148546357	 0.121721
H	-0.1333522579	 1.94483897	 1.2920663351	 0.13879
H	 0.3091827029	-0.4108052954	 2.2611794494	 0.115923
H	 0.4213721626	-1.7935470311	 1.1453279661	 0.122076
H	 1.7770907089	-0.6699234745	 1.3119436214	 0.119353
H	-1.7728781276	 0.5832528059	-0.8076842917	 0.115675
H	-1.5643823581	-1.1236902675	-0.3386904998	 0.117132
H	-2.1941685229	-0.6499340647	 1.9783587458	 0.079103
H	 0.4531992348	-0.2489955899	-3.2300712412	 0.116617
H	 0.38513198	 1.3467185685	-2.3412797857	 0.112976
H	 2.4853547625	 0.8719697304	-1.1375530552	 0.112133
H	 2.6704794866	-0.7515385607	-1.9580212558	 0.116413
25.6109	70.0096	77.0093	191.1162	236.1636	255.8976	275.4913	299.6352	326.8428	363.8808	377.6043	473.2428	495.2042	534.3379	667.2624	781.8048	823.2254	889.7142	912.5338	923.9337	942.1659	974.1659	992.8351	1027.1313	1053.2599	1060.8786	1110.6783	1122.3383	1155.3491	1167.3977	1180.9316	1187.7564	1242.2308	1279.1455	1306.3046	1322.3502	1401.8086	1421.3972	1431.593	1472.3823	1477.7754	1484.3426	1490.8718	1507.6333	1512.181	1523.7421	1822.6558	2869.8187	3038.1965	3041.5303	3046.6944	3100.9543	3102.757	3106.4605	3107.5873	3114.2382	3119.4574	3121.3281	3177.1877	3191.6037
CC(C)(CC=O)N1CC1	CC(C)(CC=O)N1CC1	
InChI=1S/C7H13NO/c1-7(2,3-6-9)8-4-5-8/h6H,3-5H2,1-2H3	InChI=1S/C7H13NO/c1-7(2,3-6-9)8-4-5-8/h6H,3-5H2,1-2H3
