19
gdb 106928	4.05741	1.0991	0.98139	4.0224	75.72	-0.2423	0.0153	0.2575	1244.6498	0.160924	-419.233389	-419.22486	-419.223915	-419.266727	32.183	
C	-0.3551444566	 1.4877090869	 0.1521999521	-0.38554
C	 0.1518664851	 0.0588634759	-0.0816498893	-0.261291
C	 0.9163913467	-0.4930517757	 1.0980185836	 0.347105
C	 2.2502485701	 0.1519423021	 1.4927962374	-0.240705
N	 2.9415864006	-0.9108766565	 2.2021583193	-0.339706
C	 2.3861500497	-2.1631275407	 2.0518332225	 0.43043
O	 2.9005114505	-3.2143859289	 2.3609853322	-0.378852
C	 1.0208414132	-1.9420104769	 1.4451487382	-0.223244
N	 0.1226179063	-1.038263944	 2.1991905652	-0.365057
H	 0.4703739441	 2.1922778142	 0.3015424683	 0.114939
H	-0.9361815832	 1.8402395438	-0.70474961	 0.11863
H	-0.9978166279	 1.52657957	 1.037033377	 0.133136
H	-0.6976146993	-0.6039349974	-0.2741536106	 0.116001
H	 0.7925313268	 0.0265799654	-0.9720524423	 0.09998
H	 2.7978480803	 0.4673512523	 0.5934388604	 0.115157
H	 2.1094046208	 1.0375105807	 2.1255034069	 0.117049
H	 3.8725424933	-0.8125583526	 2.5737532957	 0.254221
H	 0.5529459807	-2.7547350339	 0.9027943905	 0.110751
H	 0.531371129	-0.8137465649	 3.1050230827	 0.236996
72.9372	112.0096	157.7749	212.2417	253.2971	332.1063	388.0043	402.8422	474.1157	501.2552	603.1698	669.8107	735.0313	782.426	791.8228	836.0095	904.5984	949.1052	957.9191	1014.2397	1046.2559	1055.8907	1080.6768	1114.1932	1143.7803	1158.0969	1212.6493	1233.4524	1273.0666	1279.3864	1331.0766	1353.6983	1355.8523	1408.0525	1426.8812	1450.2815	1476.5281	1500.1833	1507.4748	1525.254	1832.3642	3001.9529	3030.5848	3035.2601	3040.1721	3078.8756	3105.773	3115.7584	3192.2914	3473.403	3647.6386
CCC12CNC(=O)C1N2	CC[C@]12CNC(=O)[C@H]1N2	
InChI=1S/C6H10N2O/c1-2-6-3-7-5(9)4(6)8-6/h4,8H,2-3H2,1H3,(H,7,9)	InChI=1S/C6H10N2O/c1-2-6-3-7-5(9)4(6)8-6/h4,8H,2-3H2,1H3,(H,7,9)/t4-,6+/m1/s1
