17
gdb 17414	4.21495	1.58618	1.5308	2.3146	68.93	-0.222	0.0765	0.2985	895.1891	0.142369	-363.78521	-363.77801	-363.777066	-363.816399	28.308	
O	-0.0495708204	 1.3483160896	-0.1659788011	-0.420341
C	-0.0086465425	-0.043972442	-0.0470253294	 0.044517
C	-0.4777358115	-0.6892436966	 1.2426686464	-0.412485
C	-1.3286618701	-0.7300777837	 0.0004039529	 0.404476
C	-2.7303065029	-0.0970413822	-0.1695220943	-0.300683
C	-3.1402544752	-1.3727869755	-0.9257797293	-0.03536
N	-2.2290865353	-1.4885441081	-2.0919039067	-0.331126
C	-1.7845248901	-1.963865195	-0.7531108305	-0.165705
H	 0.673149874	 1.7126239964	 0.355803105	 0.286281
H	 0.7979388224	-0.5325142002	-0.5947917943	 0.083697
H	 0.0084846734	-1.601912981	 1.5748415261	 0.107838
H	-0.7942352483	-0.0231955146	 2.0397649175	 0.111828
H	-3.2549899984	 0.0252718347	 0.7814222866	 0.10117
H	-2.7759973006	 0.829275062	-0.745584523	 0.121879
H	-4.1112634155	-1.8518607239	-0.9314954702	 0.091564
H	-2.5241005963	-2.3162252676	-2.6115738526	 0.224032
H	-1.4781372827	-2.9910360224	-0.5943816732	 0.088416
118.8041	169.6441	221.6582	296.7041	373.4144	429.5624	467.631	511.0463	591.0334	761.3868	811.3656	820.2861	835.9211	887.8931	897.6235	925.7933	963.4311	981.5739	1010.2302	1030.8538	1057.7216	1088.4639	1110.0715	1118.4626	1153.4914	1176.3738	1198.4955	1224.9226	1279.8375	1298.6583	1316.0723	1340.0249	1382.1674	1429.7316	1474.2282	1498.8368	3065.345	3093.7507	3115.6509	3125.2524	3179.3694	3195.1865	3204.849	3457.819	3802.1689
OC1CC11CC2NC12	O[C@H]1C[C@]21C[C@H]1N[C@@H]21	
InChI=1S/C6H9NO/c8-4-2-6(4)1-3-5(6)7-3/h3-5,7-8H,1-2H2	InChI=1S/C6H9NO/c8-4-2-6(4)1-3-5(6)7-3/h3-5,7-8H,1-2H2/t3-,4+,5-,6+/m1/s1
