14
gdb 43556	2.14616	1.63684	1.05136	2.3244	74.87	-0.2693	0.0022	0.2715	1109.1053	0.098321	-399.466776	-399.458285	-399.457341	-399.500251	31.243	
N	-0.1123471463	 1.2174660953	-0.5429599513	-0.531232
C	-0.0395521839	 0.0554881394	-0.0920606439	 0.447466
O	 1.032723977	-0.6718884468	 0.3768147732	-0.248805
C	 0.1921731034	-1.8348299974	 0.6962206863	-0.093042
C	 0.2074299937	-2.1792636917	 2.0979143463	 0.377967
C	 0.2191963581	-2.4883763485	 3.258245073	-0.440811
C	-1.0559843624	-1.0663052742	 0.1194569911	-0.365566
C	-2.1925869439	-0.8130777186	 0.9725057045	 0.36243
C	-3.1432463999	-0.6109181443	 1.6774520394	-0.43436
H	 0.7964114969	 1.6831797842	-0.5422019033	 0.236475
H	 0.4966422396	-2.6828691456	 0.0767495509	 0.127408
H	 0.2280968052	-2.7545883922	 4.2867632775	 0.212361
H	-1.3736414483	-1.495452508	-0.8358733735	 0.144028
H	-3.9796015391	-0.4201651716	 2.3035880298	 0.205681
68.4317	103.3873	140.7499	195.1829	253.2525	371.5084	410.4958	450.1228	509.2446	591.2236	634.1408	640.1108	653.8113	661.0338	686.786	777.205	801.392	864.7282	923.0972	927.4821	1013.4229	1060.5161	1107.3368	1166.1064	1205.8955	1294.4372	1316.9013	1369.1161	1836.1843	2245.2305	2249.3362	3064.5132	3077.0216	3483.9175	3501.5493	3503.2775
N=C1OC(C#C)C1C#C	[NH][C]1O[C@@H](C#C)[C@H]1C#C	
InChI=1S/C7H5NO/c1-3-5-6(4-2)9-7(5)8/h1-2,5-6,8H	InChI=1S/C7H5NO/c1-3-5-6(4-2)9-7(5)8/h1-2,5-6,8H/t5-,6+/m1/s1
