18
gdb 70717	2.29063	1.8854	1.23867	2.8167	72.68	-0.2216	-0.0221	0.1995	1024.855	0.148469	-439.087468	-439.079495	-439.078551	-439.119722	31.555	
O	 0.0230851972	 1.3685769915	-0.089322626	-0.476595
C	-0.0014371864	-0.0172370713	-0.0365334739	 0.338473
C	-0.4894690617	-0.7572237631	-1.2799895495	-0.335589
C	-1.3392751184	-0.7425585133	-0.0385580457	-0.073231
N	-1.4879906741	-1.978863831	 0.7071312491	-0.307086
C	-0.5231917271	-2.1913942677	 1.7834416867	-0.16372
C	 0.9055233868	-2.0380552529	 1.2306148099	-0.305098
C	 1.0858963225	-0.6006240585	 0.7946773744	 0.327399
O	 1.9932945923	 0.1164940743	 1.1750816052	-0.355641
H	 0.8671641394	 1.6072632872	 0.328635677	 0.292616
H	-0.761859091	-0.1000847813	-2.0982173714	 0.131781
H	-0.0241593988	-1.6966711333	-1.5569773778	 0.120312
H	-2.2017217409	-0.0824678058	-0.0474387182	 0.111064
H	-2.4324853586	-2.0524170493	 1.0615921999	 0.229373
H	-0.6463987025	-1.490230826	 2.6286530566	 0.097761
H	-0.6623965069	-3.2033688214	 2.17744442	 0.110968
H	 1.6597691043	-2.2689645153	 1.9854099949	 0.127145
H	 1.033848384	-2.7201315629	 0.3819154289	 0.130066
90.3671	155.3978	223.446	330.9827	349.1495	379.2559	414.837	452.2123	476.135	489.1355	555.4087	659.4175	678.0848	767.9156	814.7524	870.0135	901.7351	909.4853	944.171	983.6217	1020.279	1042.2286	1074.7855	1087.9605	1137.4959	1169.0338	1201.2054	1230.0092	1252.0221	1308.7118	1329.4912	1378.4728	1416.0797	1434.6992	1457.0663	1467.2495	1493.5463	1514.6894	1773.7915	2937.5622	3044.6938	3067.7712	3122.4482	3134.5777	3152.9597	3234.8898	3565.3479	3675.9224
OC12CC1NCCC2=O	O[C@]12C[C@H]1NCCC2=O	
InChI=1S/C6H9NO2/c8-5-1-2-7-4-3-6(4,5)9/h4,7,9H,1-3H2	InChI=1S/C6H9NO2/c8-5-1-2-7-4-3-6(4,5)9/h4,7,9H,1-3H2/t4-,6-/m1/s1
