21
gdb 91699	2.58324	1.51279	1.37594	1.7108	82.3	-0.232	0.0197	0.2517	1088.6586	0.183957	-387.103137	-387.094985	-387.094041	-387.135433	32.544	
C	-0.2238760982	 1.5483818858	 0.0015658901	-0.414037
C	 0.0310439885	 0.0432693055	-0.0085660846	 0.053222
C	 0.954714376	-0.4808594504	-1.1523708878	-0.250212
C	 2.0016026737	-1.3046522097	-0.3323263334	-0.025983
O	 1.1931968147	-1.815424592	 0.733336291	-0.250308
C	 0.7902426118	-0.5341752169	 1.2393081728	 0.007069
C	 2.1250137717	 0.1862657258	 1.3718123271	-0.205257
C	 2.8924810547	-0.2887922057	 0.3866985343	 0.353561
C	 4.2582401373	 0.1003730339	-0.0657065541	-0.510225
H	 0.7144103461	 2.1109539766	 0.0387593026	 0.115789
H	-0.7639000694	 1.8602748308	-0.8985223302	 0.114927
H	-0.8293099044	 1.8443344952	 0.8662122285	 0.1099
H	-0.9279841197	-0.4814966274	-0.0611633876	 0.077672
H	 0.4100236033	-1.128275037	-1.8435670541	 0.101428
H	 1.4183974411	 0.3233970155	-1.7310323105	 0.094623
H	 2.4987100605	-2.1154732102	-0.8658288025	 0.072395
H	 0.1860880805	-0.6472022307	 2.139702267	 0.072224
H	 2.3480338876	 0.9859225472	 2.065730523	 0.09661
H	 4.6884912704	 0.8785033706	 0.5706373405	 0.127464
H	 4.9392648761	-0.7600710368	-0.0627057003	 0.13058
H	 4.2417944177	 0.4790104099	-1.0963103117	 0.128557
117.1424	173.3989	189.5714	240.9971	275.0706	301.7	393.6292	492.6065	514.4705	584.428	594.566	731.2975	777.1172	805.9436	838.1277	855.6639	894.8991	917.3255	931.4066	948.22	989.3248	999.2296	1033.1762	1060.2366	1073.8965	1100.5627	1127.5108	1159.2492	1196.0497	1227.132	1245.1315	1256.1159	1285.2929	1319.8572	1338.7884	1341.6424	1369.0115	1409.1043	1413.4207	1478.9757	1486.5346	1490.8869	1498.6459	1502.7011	1699.6193	3014.86	3027.2978	3048.9594	3057.8025	3060.1113	3090.1146	3102.4565	3105.9966	3108.7181	3114.4105	3119.5169	3218.078
CC1CC2OC1C=C2C	C[C@H]1C[C@@H]2O[C@H]1C=C2C	
InChI=1S/C8H12O/c1-5-3-8-6(2)4-7(5)9-8/h3,6-8H,4H2,1-2H3	InChI=1S/C8H12O/c1-5-3-8-6(2)4-7(5)9-8/h3,6-8H,4H2,1-2H3/t6-,7-,8-/m0/s1
