21
gdb 72880	3.05408	1.38898	1.16896	1.6028	82.69	-0.2365	0.0755	0.312	1146.4896	0.182021	-387.05002	-387.041606	-387.040662	-387.082817	33.307	
C	-0.1815599392	 1.5076478912	 0.3351395069	-0.474106
C	 0.0582887443	 0.0436385091	 0.0794841833	 0.461487
C	-1.145049328	-0.9356788336	-0.0215461549	-0.359641
C	-0.3822630321	-1.9128437924	 0.8941840669	 0.393199
C	-0.9775420945	-2.7132382187	 2.0150292723	-0.336736
C	-0.3511103856	-3.4119864094	 0.8295633133	-0.321328
C	 0.8142110374	-0.9622315855	 1.0117764758	-0.225516
C	 1.8188250717	-1.0539312093	-0.1466517981	-0.085966
O	 1.0167477005	-0.1901508512	-0.9848641628	-0.330692
H	 0.759769296	 2.0293197668	 0.5321896797	 0.121197
H	-0.6488165115	 1.9709343843	-0.5415919704	 0.128146
H	-0.8486987135	 1.6505486735	 1.1912300834	 0.116318
H	-2.0739157141	-0.5522180074	 0.4134734893	 0.09573
H	-1.3365040052	-1.2741405028	-1.0431188862	 0.107059
H	-0.4479460699	-2.7419665972	 2.9624256556	 0.110345
H	-2.0591157134	-2.7321989682	 2.108779377	 0.111251
H	-1.0079241023	-3.9050666543	 0.120032219	 0.113795
H	 0.6004253507	-3.913744233	 0.9767217036	 0.110657
H	 1.1898215983	-0.7234619788	 2.0076314379	 0.070975
H	 2.7993748936	-0.6054541352	 0.0606075502	 0.094953
H	 1.9655114067	-2.0473329979	-0.5883521017	 0.098873
67.3745	204.5483	211.8979	218.3176	259.7176	310.4293	351.5368	385.8875	475.4019	519.465	651.9655	722.8842	773.9872	820.2984	861.5445	870.5554	906.0937	919.2816	923.7344	958.7613	971.5472	1007.4697	1014.3435	1050.1615	1069.9592	1075.7989	1107.3892	1133.5558	1162.4433	1177.9947	1187.4936	1191.0647	1221.2305	1257.8263	1277.2378	1325.5359	1350.4717	1381.9493	1408.9729	1463.5436	1466.1666	1480.9826	1488.281	1502.3112	1519.5612	3004.4168	3030.1472	3042.8021	3049.9135	3098.076	3100.0912	3103.5244	3112.0511	3118.003	3123.9653	3196.1809	3211.6956
CC12CC3(CC3)C1CO2	C[C@]12CC3(CC3)[C@H]1CO2	
InChI=1S/C8H12O/c1-7-5-8(2-3-8)6(7)4-9-7/h6H,2-5H2,1H3	InChI=1S/C8H12O/c1-7-5-8(2-3-8)6(7)4-9-7/h6H,2-5H2,1H3/t6-,7-/m0/s1
