25
gdb 103850	2.844	0.92472	0.85527	0.1099	94.25	-0.2395	0.0877	0.3272	1554.046	0.227793	-352.33885	-352.328461	-352.327517	-352.374487	39.397	
C	 0.206460643	 1.5461017993	 0.2137159972	-0.381809
C	-0.1963570226	 0.1112733285	-0.1523065126	-0.241639
C	 0.6066721849	-0.4851326139	-1.3010783831	 0.361416
C	 0.432109227	 0.2211357885	-2.6349451906	-0.459955
C	 1.9742580331	-1.060946032	-0.9968011571	-0.345783
C	 0.8335138382	-1.9863682568	-1.3622392475	-0.053973
C	 0.2742017301	-2.9645489059	-0.376392415	 0.018581
C	-0.9210458763	-3.813762826	-0.7391508125	-0.268215
C	 0.4425384331	-4.4469523072	-0.6128701397	-0.276694
H	 1.2708730616	 1.602486738	 0.4658862383	 0.115868
H	 0.0229203666	 2.2445609081	-0.6084098306	 0.116393
H	-0.3629313298	 1.9013891352	 1.0784359602	 0.108288
H	-0.088800007	-0.5186049132	 0.7363755716	 0.091933
H	-1.2639257891	 0.087209646	-0.4108207965	 0.092921
H	 0.7767937315	 1.2602615723	-2.5947055351	 0.115415
H	 1.0014182389	-0.2799205332	-3.4242291312	 0.109509
H	-0.6214144923	 0.2321945143	-2.9404205433	 0.110967
H	 2.7791950326	-0.9120986525	-1.7096633828	 0.101929
H	 2.2997477483	-1.0650290754	 0.0396374586	 0.102639
H	 0.8688680479	-2.3876734787	-2.3739403319	 0.069582
H	 0.3321777728	-2.6558412545	 0.6629615113	 0.07938
H	-1.6606809043	-4.0220480414	 0.0262520645	 0.107884
H	-1.3354465138	-3.6991456492	-1.7355437325	 0.108635
H	 0.9442247722	-4.7574940002	-1.5237630019	 0.109067
H	 0.6378875534	-5.08793538	 0.239890132	 0.107661
48.1281	81.2236	129.8924	137.4762	213.1976	229.9122	262.9188	312.5047	337.5371	367.2822	373.3542	450.6093	567.9729	682.596	744.2242	784.4774	800.6698	820.8037	872.6278	903.3654	912.0233	926.3626	964.2217	987.0422	1019.3719	1026.1681	1056.7582	1062.268	1065.5162	1075.1277	1094.0901	1122.0502	1132.6297	1145.5384	1197.0963	1214.0446	1231.239	1261.2659	1308.5817	1319.5357	1353.1839	1377.8965	1409.9419	1418.2294	1449.6631	1468.065	1478.9844	1488.4184	1495.3679	1499.5523	1506.2152	1508.891	1511.1598	3015.6441	3021.9376	3034.9131	3068.8927	3082.4733	3095.5707	3101.5871	3107.6868	3110.0886	3116.6294	3126.3792	3131.3236	3146.1793	3199.1227	3204.0673	3219.8679
CCC1(C)CC1C1CC1	CC[C@@]1(C)C[C@H]1C1CC1	
InChI=1S/C9H16/c1-3-9(2)6-8(9)7-4-5-7/h7-8H,3-6H2,1-2H3	InChI=1S/C9H16/c1-3-9(2)6-8(9)7-4-5-7/h7-8H,3-6H2,1-2H3/t8-,9-/m0/s1
