19
gdb 112238	2.3097	1.35079	0.90915	4.9474	79.53	-0.2537	-0.0243	0.2294	1296.4508	0.158911	-419.237578	-419.228359	-419.227415	-419.272058	33.278	
C	-0.2385006113	 1.7268568147	-0.1035627413	-0.394566
C	-0.0277349157	 0.2127363611	-0.1893265509	-0.185377
C	-1.288734649	-0.6169980534	 0.024862042	 0.037499
C	-1.0883321377	-2.1639222405	 0.1149346004	-0.359061
C	-1.6402976339	-2.0818995915	 1.53155058	 0.406979
N	-1.8825813451	-2.92663435	 2.429782543	-0.536687
N	-1.8054045169	-0.6758006673	 1.4188677745	-0.102178
C	-2.4807292338	 0.1964598172	 2.2268343398	 0.132294
O	-2.9116039186	-0.0946382524	 3.3218057128	-0.306387
H	 0.6883591943	 2.2609684755	-0.3314288169	 0.126403
H	-1.0006704528	 2.0647017328	-0.8144995644	 0.119878
H	-0.5534307117	 2.0339189737	 0.8986458944	 0.1273
H	 0.3628519688	-0.0478041317	-1.1813457088	 0.111858
H	 0.7296383609	-0.1042179597	 0.538007687	 0.110696
H	-2.0712512197	-0.3194155437	-0.6822590022	 0.096205
H	-1.6993360648	-2.7553284806	-0.568788185	 0.138698
H	-0.049331138	-2.4936940052	 0.0489912358	 0.135313
H	-2.2781986149	-2.4677215506	 3.2521956458	 0.250668
H	-2.5971265399	 1.1990623815	 1.7735344338	 0.090464
68.0982	106.8271	110.4213	184.6572	215.5582	233.1721	271.0538	351.9013	409.8795	472.2066	516.6462	563.669	700.3012	797.1716	813.4591	863.6371	919.0407	959.5166	978.7514	998.708	1029.7374	1045.9663	1078.08	1106.6083	1151.8707	1189.9676	1236.5999	1253.8492	1280.8396	1298.023	1344.1616	1385.5186	1400.2546	1414.2072	1427.872	1467.911	1477.8967	1499.2817	1506.0169	1753.799	1820.6069	2956.5148	3025.6118	3035.7506	3042.2771	3066.6217	3084.2915	3104.9957	3111.6895	3138.8911	3483.3511
CCC1CC(=N)N1C=O	CC[C@H]1C[C]([NH])N1C=O	
InChI=1S/C6H10N2O/c1-2-5-3-6(7)8(5)4-9/h4-5,7H,2-3H2,1H3	InChI=1S/C6H10N2O/c1-2-5-3-6(7)8(5)4-9/h4-5,7H,2-3H2,1H3/t5-/m0/s1
