16
gdb 125631	5.61108	1.00118	0.85408	4.0302	75.73	-0.2225	-0.0076	0.2149	1313.1419	0.127076	-430.295585	-430.287376	-430.286432	-430.328651	29.935	
C	-0.0137038581	 1.4836513457	 0.040427877	-0.482038
C	-0.00269021	-0.0073596471	 0.0195350142	 0.350413
N	-0.0559571187	-0.7022723146	-1.1060127419	-0.272436
N	-0.0219034628	-1.9900331945	-0.6600855756	-0.2388
C	 0.0484812794	-1.9942644624	 0.6811011574	 0.492077
N	 0.0986877636	-3.1340363645	 1.4615102058	-0.394396
C	 0.086830585	-4.4243414354	 1.0016932732	 0.092275
N	 0.0248962393	-4.7089567228	-0.2420125707	-0.476195
N	 0.0632535672	-0.7648613964	 1.1602639723	-0.399043
H	 0.8926734468	 1.8724227709	 0.5155387823	 0.135001
H	-0.074260508	 1.8707205719	-0.9780065843	 0.139122
H	-0.867014269	 1.8578796934	 0.6149802692	 0.135004
H	-0.0456016594	-2.8064451304	-1.2550748555	 0.296099
H	 0.1493851858	-2.96159152	 2.4522867638	 0.27701
H	 0.1360030376	-5.1507889464	 1.8184094661	 0.110729
H	 0.0269249612	-5.7147430675	-0.3834626235	 0.235178
82.9536	107.4944	186.4294	192.9403	264.768	298.1634	390.3874	434.1193	505.4096	587.6134	635.9989	725.5209	737.8969	752.5094	800.1333	835.2611	1006.3701	1018.9807	1037.8269	1069.3538	1070.1327	1122.5067	1154.198	1233.1549	1299.1751	1363.5547	1398.7351	1416.8633	1451.7966	1477.7648	1480.779	1532.6637	1574.1092	1640.0181	1715.4691	3044.7863	3080.5491	3099.4825	3144.6076	3538.59	3611.0277	3659.815
CC1=NNC(NC=N)=N1	Cc1n[nH]c(NC=N)n1	
InChI=1S/C4H7N5/c1-3-7-4(6-2-5)9-8-3/h2H,1H3,(H3,5,6,7,8,9)	InChI=1S/C4H7N5/c1-3-7-4(6-2-5)9-8-3/h2H,1H3,(H3,5,6,7,8,9)
