21
gdb 116539	2.35614	1.1644	0.87082	2.6214	86.4	-0.2233	-0.0607	0.1625	1421.1126	0.179602	-420.405001	-420.394157	-420.393213	-420.441123	37.99	
C	 0.2435183637	 1.6936417987	 0.0145609624	-0.366284
C	-0.1485433229	 0.2272452311	-0.2007346401	-0.131076
N	 0.6353569826	-0.3621299719	-1.2735530211	-0.303634
C	 1.6778197193	-1.0719575849	-1.0735708266	 0.285976
C	 2.2296549332	-1.4439926286	 0.288323288	 0.07409
O	 2.2364909017	-0.711193116	 1.2453764797	-0.235158
N	 2.3138864079	-1.7104915729	-2.1320335213	-0.094869
C	 1.7305851406	-1.5324538964	-3.4520687397	-0.315074
C	 3.7674154889	-1.8047970814	-2.1281811964	-0.344348
H	 1.2603863445	 1.7537698085	 0.4107454337	 0.129719
H	 0.1995899501	 2.2481311625	-0.9275316474	 0.117922
H	-0.4363553995	 2.1683737449	 0.7291075782	 0.108858
H	-0.0621916069	-0.3086993256	 0.7523447503	 0.104018
H	-1.1991332696	 0.1798862034	-0.5123220486	 0.095221
H	 2.5880371445	-2.4943987585	 0.3669714446	 0.10014
H	 1.8918167313	-0.5186372704	-3.8472528111	 0.120037
H	 2.1868106197	-2.2544326657	-4.1358375416	 0.113747
H	 0.6548194003	-1.6991658145	-3.4007870893	 0.147628
H	 4.1500697056	-1.9505080171	-1.1156661583	 0.136726
H	 4.0833591786	-2.6597347698	-2.7341783317	 0.132017
H	 4.2437258864	-0.8996243654	-2.5369419836	 0.124344
66.6096	90.6759	111.4512	137.3633	173.4557	189.8813	217.6507	249.9021	272.7753	303.0128	379.2132	400.8478	454.0491	477.8196	556.5442	625.0945	806.8339	849.8132	899.2783	960.655	1020.169	1062.2985	1077.4109	1120.4089	1124.2046	1144.0346	1173.2475	1191.0362	1278.7765	1307.6993	1367.6952	1378.5115	1396.5054	1423.4539	1445.8604	1468.9088	1476.9623	1486.5213	1487.8781	1498.4772	1502.459	1517.6809	1527.9913	1683.3973	1813.282	2879.3949	2982.1837	3000.7749	3016.3328	3040.4626	3051.5727	3071.7105	3082.063	3112.2691	3123.2718	3127.5239	3150.7395
CCN=C(C=O)N(C)C	CCN=C(C=O)N(C)C	
InChI=1S/C6H12N2O/c1-4-7-6(5-9)8(2)3/h5H,4H2,1-3H3	InChI=1S/C6H12N2O/c1-4-7-6(5-9)8(2)3/h5H,4H2,1-3H3
