19
gdb 36482	4.01588	1.02567	0.89256	1.7468	80.03	-0.2559	0.0562	0.3121	1308.9582	0.159327	-385.854722	-385.846383	-385.845439	-385.887994	32.082	
C	-0.0671567049	-1.1967538964	-0.0476443212	-0.448889
C	-0.045686921	 0.0041786846	 0.0033567078	 0.303643
C	 0.0097692075	 1.4596445986	 0.0708990488	-0.371677
C	 1.4463845126	 2.0185802515	 0.0244167506	 0.002479
C	 2.2091656984	 1.6933761351	-1.2872996129	-0.223655
C	 3.1992366781	 2.8629530653	-1.5035724675	-0.248373
C	 2.5284111098	 4.0360017388	-0.8169851281	 0.05066
O	 1.1347555071	 4.1742561483	-1.1385062521	-0.264931
C	 1.4964738076	 3.5350909155	 0.0961002732	 0.025722
H	-0.1000731846	-2.2568459373	-0.0955030889	 0.193489
H	-0.5588860041	 1.8935906061	-0.7612944269	 0.144502
H	-0.4845456055	 1.7976001341	 0.9912712782	 0.125873
H	 2.0007293695	 1.6259289915	 0.887163705	 0.084257
H	 2.7036022792	 0.7215104689	-1.2448788624	 0.110185
H	 1.4966221516	 1.6596568228	-2.1152699487	 0.118997
H	 4.161339354	 2.6730520813	-1.0114549665	 0.103828
H	 3.4052509435	 3.0493789139	-2.562064773	 0.11042
H	 3.0584750369	 4.9703309485	-0.6491280955	 0.092911
H	 1.1935606945	 4.0613267888	 0.9989811801	 0.09056
68.7854	99.1297	153.568	239.0005	311.5969	355.1346	385.4611	442.5582	523.5843	617.6343	637.0248	660.6455	683.6396	812.3123	828.7085	843.8816	875.4036	926.8151	944.0006	956.9651	970.7115	1021.4686	1051.6262	1085.7803	1098.9989	1113.9288	1173.3312	1216.6515	1242.3042	1261.9859	1288.8619	1314.7143	1327.0435	1334.2122	1356.429	1378.2428	1439.9787	1473.3867	1482.9488	1495.5692	2237.4943	3017.6321	3021.9678	3035.4232	3056.3037	3072.4935	3086.2803	3124.0776	3134.0568	3149.848	3506.6757
C#CCC1CCC2OC12	C#CC[C@H]1CC[C@H]2O[C@@H]12	
InChI=1S/C8H10O/c1-2-3-6-4-5-7-8(6)9-7/h1,6-8H,3-5H2	InChI=1S/C8H10O/c1-2-3-6-4-5-7-8(6)9-7/h1,6-8H,3-5H2/t6-,7+,8-/m0/s1
