16
gdb 50221	4.28431	1.21205	1.09802	2.3439	68.45	-0.2337	-0.0296	0.2041	1078.3696	0.124852	-437.811575	-437.804618	-437.803674	-437.843641	26.937	
O	-0.6666492465	 0.8829952601	 0.8613585559	-0.249191
C	 0.2006916424	 0.762274983	 0.0365156416	 0.175192
C	 1.4429210795	 1.6349233146	-0.0340381794	-0.103459
N	 2.6125925937	 0.8636509794	-0.5343042063	-0.336593
C	 3.0555601673	 1.6568660186	-1.6635264495	-0.01601
C	 2.7866521065	 3.1893956047	-1.4631841155	 0.032906
O	 2.4474258857	 3.3400427424	-2.8799762608	-0.310435
C	 1.8093581565	 2.0836378044	-2.4819936283	 0.062334
C	 1.3419623308	 2.7084613285	-1.1259448553	-0.067369
H	 0.1560915588	-0.010617912	-0.7638006673	 0.081698
H	 1.6019738474	 2.0815842816	 0.9539796597	 0.099291
H	 3.3278305757	 0.7635472693	 0.1764106356	 0.232086
H	 3.9543662152	 1.3168690375	-2.1740045857	 0.09752
H	 3.3829126496	 3.9690947435	-0.9884614601	 0.097033
H	 1.2411776311	 1.5327899078	-3.2306052968	 0.102881
H	 0.5218990266	 3.4231767067	-1.1123556477	 0.102114
57.9352	123.9277	248.5516	398.5635	422.5534	453.8814	508.292	678.9862	700.8908	765.5381	779.5385	835.7118	886.4005	897.0121	925.0606	949.2464	970.0902	985.5958	992.0774	1053.8304	1079.7654	1104.2515	1134.8723	1149.6557	1160.061	1180.326	1223.2125	1249.2815	1256.3843	1280.5098	1293.7333	1368.763	1408.3704	1415.3641	1834.5987	2882.6247	3048.9461	3115.7619	3127.5385	3152.6108	3158.0914	3545.4688
O=CC1NC2C3OC2C13	O=C[C@H]1N[C@@H]2[C@H]3O[C@@H]2[C@@H]13	
InChI=1S/C6H7NO2/c8-1-2-3-5-4(7-2)6(3)9-5/h1-7H	InChI=1S/C6H7NO2/c8-1-2-3-5-4(7-2)6(3)9-5/h1-7H/t2-,3-,4+,5-,6+/m1/s1
