20
gdb 23339	3.46545	0.95687	0.86667	1.5454	84.41	-0.2335	0.0367	0.2702	1416.1668	0.170421	-403.048354	-403.039438	-403.038494	-403.082253	33.895	
C	-0.0595809535	 1.5496363931	 0.0413440245	-0.373966
C	-0.0100019656	 0.0276303717	 0.2245864886	-0.23669
C	-1.3832156576	-0.6144838428	 0.0578639303	 0.057032
C	-2.050041597	-0.7900328024	-1.3673256612	-0.156671
C	-1.0691663733	-1.9921375764	-1.6060846062	-0.240747
C	-1.5540695997	-2.1729909427	-0.1241461003	-0.160891
C	-2.9201787709	-1.8240339822	-0.6721932474	 0.510232
N	-4.0980996671	-2.2500063245	-0.5441547927	-0.330486
O	-4.9991159136	-1.4935948203	-1.3430862075	-0.407817
H	 0.9216798085	 2.000604969	 0.2174610192	 0.114548
H	-0.3728475862	 1.8168290249	-0.9734242815	 0.119808
H	-0.7685088676	 2.0102123382	 0.7379719976	 0.118451
H	 0.7266093749	-0.3974239475	-0.4634827039	 0.101312
H	 0.3508060744	-0.2056791393	 1.2347630884	 0.102598
H	-2.0716010034	-0.1928969335	 0.7982382013	 0.082761
H	-2.3525408557	-0.0190556982	-2.0714541756	 0.094574
H	-1.3959810683	-2.751166697	-2.3187620584	 0.112499
H	-0.018126847	-1.7421413621	-1.7489304047	 0.104273
H	-1.2912996343	-2.9623396414	 0.5776290929	 0.086907
H	-5.837824617	-1.9242986665	-1.1479049337	 0.302274
71.182	96.3579	145.3821	222.3089	234.9592	300.486	354.2239	369.9007	413.3407	485.3424	576.9905	697.3091	717.0627	759.9048	786.6256	806.8585	860.1179	890.465	934.2739	962.7583	1001.7182	1036.0536	1038.5944	1077.5603	1090.9102	1099.7589	1129.2761	1141.409	1151.2592	1199.171	1216.4423	1234.4733	1240.422	1292.8427	1345.3925	1403.5231	1410.9074	1427.1302	1482.9775	1499.6093	1504.6729	1526.5728	1828.3731	3027.0389	3032.9362	3046.8999	3074.5766	3084.5868	3104.0538	3106.34	3139.4403	3149.0967	3154.5367	3821.5691
CCC1C2CC1C2=NO	CC[C@H]1[C@H]2C[C@@H]1C2=NO	
InChI=1S/C7H11NO/c1-2-4-5-3-6(4)7(5)8-9/h4-6,9H,2-3H2,1H3	InChI=1S/C7H11NO/c1-2-4-5-3-6(4)7(5)8-9/h4-6,9H,2-3H2,1H3/t4-,5+,6-
