15
gdb 18510	4.69177	1.42008	1.30282	5.7639	61.76	-0.2482	0.0146	0.2628	940.2674	0.11925	-399.76525	-399.758181	-399.757237	-399.797029	25.82	
O	 0.3241950935	 0.1091113887	-0.0444845899	-0.278081
C	 0.8126953707	 1.1895259168	 0.1105829347	 0.14325
O	 0.2218863475	 2.3016492552	-0.3936892648	-0.211781
C	 0.8218555148	 3.5776758493	-0.2059238835	 0.145267
C	 1.169564773	 4.1399331185	 1.2222688233	-0.278214
C	 2.5407878036	 4.5235205153	 0.6574924963	-0.032499
N	 3.1921821191	 3.2473499878	 0.3012671905	-0.327566
C	 2.2503612301	 3.876984931	-0.6591186313	-0.089828
H	 1.7537336053	 1.3930223073	 0.6421225598	 0.122906
H	 0.1352558136	 4.2625051466	-0.7060247377	 0.112529
H	 0.5297247942	 4.977168623	 1.504399323	 0.118001
H	 1.2075431898	 3.4130355903	 2.0357288073	 0.124704
H	 3.1208900312	 5.4126892056	 0.8648687494	 0.107125
H	 4.1333287893	 3.455022513	-0.0306279206	 0.238671
H	 2.5739394942	 4.1410872516	-1.6580812564	 0.105515
91.4021	118.4523	173.4363	259.841	362.655	433.5838	508.2605	666.2313	715.4539	810.894	823.8794	857.4978	899.0909	962.0505	994.7427	1007.4213	1052.5082	1064.935	1084.3169	1096.3822	1129.3179	1145.634	1162.4845	1219.7684	1259.4189	1298.7813	1331.4627	1380.6898	1414.1548	1435.6779	1477.0309	1851.552	3045.2997	3080.3332	3102.3679	3140.9177	3194.3088	3212.1877	3480.4088
O=COC1CC2NC12	O=CO[C@H]1C[C@H]2N[C@@H]12	
InChI=1S/C5H7NO2/c7-2-8-4-1-3-5(4)6-3/h2-6H,1H2	InChI=1S/C5H7NO2/c7-2-8-4-1-3-5(4)6-3/h2-6H,1H2/t3-,4+,5-/m1/s1
