18
gdb 22789	2.25864	1.34612	0.92088	1.3434	71.63	-0.2528	-0.0152	0.2376	1255.0243	0.146057	-476.157561	-476.148163	-476.147219	-476.191961	34.648	
O	 0.1053364143	 1.2993812992	 0.3318606628	-0.420848
C	-0.0047642227	-0.0502695833	-0.0694983787	-0.07271
C	-1.4599152534	-0.5195476525	-0.0640313491	-0.10322
C	-1.7715390711	-2.0512954149	-0.1703671543	-0.277609
C	-2.6999238154	-1.950512052	 1.0788867665	 0.06114
O	-2.4774266665	-2.9152082776	 2.0732718853	-0.435996
C	-2.1130961029	-0.5670639948	 1.3018693179	 0.379917
N	-1.9493055929	 0.1931243456	 2.3022053846	-0.257244
O	-2.6145232901	-0.3288815844	 3.4394649543	-0.407724
H	-0.2794745181	 1.3594054072	 1.2164974867	 0.292691
H	 0.4097443833	-0.115082806	-1.0814254283	 0.11018
H	 0.589874434	-0.7172342871	 0.5757530409	 0.087662
H	-2.0398460652	 0.0801284386	-0.7735433288	 0.104419
H	-2.2296795023	-2.4021694559	-1.0950905464	 0.111655
H	-0.897297889	-2.6624535335	 0.0656927032	 0.125527
H	-3.7614613652	-1.8916278165	 0.7898353617	 0.090262
H	-2.6950136354	-2.5003181741	 2.9169726486	 0.299164
H	-2.3833486916	 0.3022490819	 4.1291487429	 0.312735
58.992	113.2776	165.2497	169.4498	221.1265	292.4769	324.5557	374.2311	385.4933	415.0231	421.2697	489.114	577.8362	615.3846	676.5855	801.164	871.2355	914.1373	950.8909	997.2658	1017.6065	1058.8588	1080.7624	1121.5144	1155.5183	1168.6235	1196.532	1233.2531	1255.425	1262.4332	1325.4492	1353.1067	1386.1506	1396.617	1400.9523	1439.3033	1477.7436	1507.0933	1774.2848	2972.3081	2972.7571	3054.4231	3071.2895	3079.1242	3143.7732	3755.4788	3791.5648	3825.0394
OCC1CC(O)C1=NO	OC[C@H]1C[C@@H](O)C1=NO	
InChI=1S/C5H9NO3/c7-2-3-1-4(8)5(3)6-9/h3-4,7-9H,1-2H2	InChI=1S/C5H9NO3/c7-2-3-1-4(8)5(3)6-9/h3-4,7-9H,1-2H2/t3-,4-/m1/s1
