14
gdb 48608	2.30345	1.62918	1.15611	4.7648	67.27	-0.2789	-0.064	0.2149	1039.2312	0.099091	-436.625183	-436.617305	-436.616361	-436.658795	28.13	
O	-0.7833256947	 1.0228941636	-0.0512638514	-0.237215
C	 0.3867411336	 0.7489947685	-0.0103859618	 0.044643
C	 1.4587406228	 1.7974701972	-0.000819768	 0.317029
C	 1.9166792137	 2.7317343558	 1.1585555472	-0.263616
C	 2.8976044098	 2.8602095831	-0.0276675802	 0.045523
O	 2.8634072653	 1.3900820218	-0.1895915241	-0.324797
C	 1.683404827	 2.9837236941	-0.9997280937	-0.199644
C	 1.9022675047	 2.6570260495	-2.3967352961	 0.284115
N	 2.061131325	 2.4300653979	-3.5183506915	-0.312372
H	 0.7665714979	-0.2932850681	 0.0359716774	 0.116716
H	 1.2813823887	 3.5806975791	 1.4162042541	 0.12559
H	 2.3169214822	 2.2044862456	 2.0231243014	 0.134348
H	 3.8657070471	 3.3522419638	-0.0961135291	 0.130093
H	 1.0328104668	 3.8517209182	-0.8800080641	 0.139586
32.2578	119.3586	167.6369	182.5249	268.1088	409.3374	460.8651	492.4355	534.3059	652.521	723.9455	755.0324	780.5751	903.1768	909.7443	920.9721	996.7418	1021.6279	1059.2258	1076.6295	1098.0044	1117.7381	1191.5755	1212.6477	1226.7675	1292.2799	1367.133	1401.5028	1489.9701	1827.5829	2364.9834	2920.01	3085.3849	3108.6152	3149.0461	3175.7198
O=CC12CC(O1)C2C#N	O=C[C@@]12C[C@@H](O1)[C@H]2C#N	
InChI=1S/C6H5NO2/c7-2-4-5-1-6(4,3-8)9-5/h3-5H,1H2	InChI=1S/C6H5NO2/c7-2-4-5-1-6(4,3-8)9-5/h3-5H,1H2/t4-,5-,6-/m1/s1
