18
gdb 40980	3.95456	1.23576	1.22594	1.5736	77.65	-0.2426	0.0108	0.2533	1082.3794	0.150241	-401.975141	-401.967769	-401.966825	-402.00754	28.424	
C	-0.0065436657	 1.5826715723	 0.1527063548	-0.263589
C	 1.5062116146	 1.8560782279	-0.0332172807	-0.272015
C	 2.105696041	 0.5726545379	-0.6764417983	 0.293267
C	 2.414637353	 0.6760925001	-2.2048039059	-0.164579
O	 3.8569296315	 0.6239476251	-2.2931246568	-0.219846
C	 4.2711121344	 0.3360331685	-1.0367597901	 0.108471
N	 3.4326865231	 0.2583107024	-0.0907922108	-0.301984
C	 1.0484839925	-0.4642735021	-0.3677287806	-0.117103
C	-0.0887892537	 0.0780552755	 0.0594530882	-0.068258
H	-0.3844759649	 1.967578043	 1.1065137316	 0.109486
H	-0.6162549149	 2.0560842959	-0.6291090273	 0.106474
H	 1.7166604787	 2.7522796341	-0.6232992288	 0.095418
H	 1.9855522068	 1.9833580141	 0.9406162285	 0.125518
H	 2.0093578184	-0.1669029636	-2.7734124645	 0.115117
H	 2.0746841553	 1.6104537994	-2.6576651923	 0.119794
H	 5.3424474049	 0.1948884034	-0.9419236764	 0.138962
H	 1.232807764	-1.5197456803	-0.5347333047	 0.097485
H	-0.991231259	-0.4747285734	 0.2974163942	 0.097381
67.1284	88.8855	223.9015	313.9597	366.4914	426.3025	491.1626	572.9951	674.9007	755.1676	777.1938	803.7434	852.2577	878.9716	922.6407	947.7687	963.4256	969.0645	971.7791	984.8491	1001.3005	1083.9677	1088.3485	1121.4786	1154.8603	1183.11	1196.686	1233.9737	1258.9685	1300.8282	1318.6389	1322.6495	1372.9119	1381.7373	1480.1388	1496.9384	1513.3232	1685.7178	1701.3616	3014.1596	3048.1682	3054.8829	3065.3147	3103.0419	3112.2292	3181.8813	3207.5166	3211.6391
C1CC2(COC=N2)C=C1	C1C[C@]2(COC=N2)C=C1	
InChI=1S/C7H9NO/c1-2-4-7(3-1)5-9-6-8-7/h1,3,6H,2,4-5H2	InChI=1S/C7H9NO/c1-2-4-7(3-1)5-9-6-8-7/h1,3,6H,2,4-5H2/t7-/m0/s1
