19
gdb 68892	2.41679	1.83363	1.27455	2.1002	76.92	-0.2169	0.0128	0.2297	1036.0461	0.158142	-423.01141	-423.002926	-423.001982	-423.043723	33.682	
C	-0.0717755022	 1.4553219674	 0.0008484989	-0.443173
C	 0.0749852615	-0.0440077544	 0.0092583133	 0.394951
C	 1.4453482671	-0.6645142428	-0.1539533531	-0.422397
C	 0.7115713887	-0.7415240976	 1.1905002053	 0.287344
O	 1.1645430617	 0.0580426038	 2.2487032034	-0.473022
C	 0.0874473963	-2.0326573092	 1.5683133586	-0.096373
C	-0.7717526188	-2.6523343718	 0.7601834599	-0.105764
C	-1.1589602574	-2.0427195521	-0.5592212731	-0.140277
O	-1.0666315877	-0.6234695644	-0.5617957131	-0.300601
H	 0.7446865531	 1.9230901132	 0.5518083628	 0.129741
H	-0.0775742703	 1.8309139029	-1.026995391	 0.119629
H	-1.016468912	 1.7375996599	 0.4745969124	 0.128846
H	 1.5717995534	-1.5862726149	-0.7106076689	 0.118157
H	 2.2803572653	 0.0263331033	-0.215487424	 0.114472
H	 2.0327526245	-0.2655208268	 2.5136693864	 0.282291
H	 0.3496520159	-2.435623171	 2.5426905326	 0.090549
H	-1.2216387918	-3.6024547556	 1.030418518	 0.096222
H	-0.5589557993	-2.4668913012	-1.3832798932	 0.101124
H	-2.2060368381	-2.2618393288	-0.7933864849	 0.118278
153.0573	178.3293	188.0697	249.9139	275.103	319.2702	365.8655	426.5466	432.2842	461.6879	535.9027	560.4965	656.8456	696.7198	756.4204	807.7442	886.7358	897.2594	924.0519	937.2929	962.5683	973.9726	1026.906	1038.8887	1093.6506	1107.4351	1160.2498	1194.775	1217.9849	1261.4661	1272.4489	1304.8756	1382.2493	1406.5744	1408.1901	1425.8425	1467.8426	1480.8038	1502.2446	1503.7151	1709.758	2944.825	3047.4343	3065.613	3111.2799	3128.425	3150.3545	3159.7386	3184.8867	3221.5189	3790.1647
CC12CC1(O)C=CCO2	C[C@@]12C[C@]1(O)C=CCO2	
InChI=1S/C7H10O2/c1-6-5-7(6,8)3-2-4-9-6/h2-3,8H,4-5H2,1H3	InChI=1S/C7H10O2/c1-6-5-7(6,8)3-2-4-9-6/h2-3,8H,4-5H2,1H3/t6-,7-/m1/s1
