21
gdb 61455	3.04537	0.89928	0.8077	3.4912	79.88	-0.24	0.0611	0.3011	1510.5298	0.182218	-420.440605	-420.430436	-420.429492	-420.476696	37.437	
C	-0.0101445224	 1.4359360892	-0.1175771121	-0.395315
C	 0.0009740501	-0.0896377099	 0.0519464732	 0.040804
N	 0.7550975886	-0.5035930834	 1.2371450219	-0.339897
C	 2.1293448864	-0.542903628	 1.2103605482	 0.453432
N	 2.7134252597	-0.7613691896	 2.4575093845	-0.568165
O	 2.7883921399	-0.3864893029	 0.1975773876	-0.39902
C	-1.3977573832	-0.6680405347	 0.1058371439	 0.016235
C	-2.1127650563	-1.0217446079	-1.1731891108	-0.266504
C	-1.6379760379	-2.1123182018	-0.2448102532	-0.271731
H	 1.0130688127	 1.8122863105	-0.1885052002	 0.140161
H	-0.5506865502	 1.7183275947	-1.0263609245	 0.116971
H	-0.5035227264	 1.9207009164	 0.7331641337	 0.100898
H	 0.5360162298	-0.5268318344	-0.7964853247	 0.109289
H	 0.3115153765	-0.3475966267	 2.1297400495	 0.231903
H	 2.2033471859	-1.3415147796	 3.107688391	 0.244463
H	 3.6874638671	-1.0126047877	 2.3752643128	 0.257628
H	-2.0215856427	-0.2537713072	 0.8967089966	 0.07355
H	-3.1770869851	-0.826038876	-1.2408751405	 0.110959
H	-1.5762888866	-0.8825489515	-2.1062161831	 0.116386
H	-0.7795625579	-2.7012755	-0.5502493614	 0.119526
H	-2.379247058	-2.6667121096	 0.3201033072	 0.10843
33.7568	62.553	101.1581	155.3367	197.4963	248.1798	304.3868	350.3494	373.6176	380.2713	435.4007	497.4693	540.6662	577.5775	646.9907	771.9883	780.7958	828.0256	833.0968	898.2059	937.0595	959.2887	1001.8265	1042.8918	1058.4014	1078.1992	1092.2545	1109.9724	1136.2269	1170.7314	1197.7992	1217.857	1225.7363	1282.1058	1330.3706	1383.1077	1400.1618	1422.8489	1471.2254	1488.1259	1499.967	1507.3303	1533.0292	1625.6988	1794.9854	3030.6032	3070.3875	3100.4796	3114.2477	3128.2233	3130.2597	3135.714	3208.5519	3223.4249	3566.986	3611.4115	3679.6902
CC(NC(N)=O)C1CC1	C[C@@H](NC(=O)N)C1CC1	
InChI=1S/C6H12N2O/c1-4(5-2-3-5)8-6(7)9/h4-5H,2-3H2,1H3,(H3,7,8,9)	InChI=1S/C6H12N2O/c1-4(5-2-3-5)8-6(7)9/h4-5H,2-3H2,1H3,(H3,7,8,9)/t4-/m1/s1
