17
gdb 32708	4.18368	1.06208	0.91061	2.263	82.64	-0.2243	-0.0643	0.16	1293.3616	0.136579	-418.02433	-418.016037	-418.015093	-418.058702	30.084	
C	 0.0147943644	 1.4459807633	 0.0526955218	-0.366632
C	-0.0712297905	-0.0835726155	-0.0329152641	-0.143364
N	 0.6430132492	-0.5812822593	-1.1995300514	-0.310347
C	 1.8470217945	-0.9565516109	-1.1032331508	 0.374502
O	 2.5488551423	-0.9246932858	 0.1027276524	-0.236275
C	 3.8248530651	-1.3816032952	 0.1317857262	 0.048015
C	 4.4485469151	-1.843552232	-0.9607339085	-0.087057
N	 3.8208013503	-1.8802623509	-2.2040500433	-0.231693
C	 2.6066592372	-1.4598952755	-2.2492364638	-0.025095
H	 1.0469619165	 1.7692480525	 0.2182913184	 0.120606
H	-0.3415566671	 1.902856586	-0.8747533654	 0.128655
H	-0.5975970632	 1.8162510287	 0.8807995893	 0.113949
H	 0.2982810119	-0.5262914014	 0.9010544266	 0.103592
H	-1.1204927727	-0.3767458625	-0.1469165571	 0.106652
H	 4.2570960422	-1.320133101	 1.1228041842	 0.141249
H	 5.4685628899	-2.2013504042	-0.911971937	 0.123356
H	 2.0692736649	-1.4681136963	-3.1943990376	 0.139889
22.5626	86.2844	154.0028	195.2034	275.4953	350.5787	402.6283	467.7373	558.6154	579.9022	650.895	736.1275	772.0964	818.2205	822.1667	898.1486	920.5328	952.1473	962.0001	1016.5374	1050.1421	1117.2344	1144.3191	1169.956	1224.132	1271.1881	1306.5061	1362.0166	1368.0731	1400.2639	1420.9211	1489.5715	1496.9506	1515.8098	1602.5862	1674.9683	1736.4854	3016.9402	3039.6803	3061.3943	3112.5633	3120.6057	3168.7339	3208.7645	3229.5403
CCN=C1OC=CN=C1	CC[N]C1=C[N]C=CO1	
InChI=1S/C6H8N2O/c1-2-8-6-5-7-3-4-9-6/h3-5H,2H2,1H3	InChI=1S/C6H8N2O/c1-2-8-6-5-7-3-4-9-6/h3-5H,2H2,1H3
