17
gdb 127556	4.16695	1.09003	0.92617	1.8892	76.56	-0.2305	-0.0091	0.2214	1263.1674	0.138541	-414.16823	-414.160035	-414.15909	-414.202616	28.946	
C	 0.0293541296	 1.4136977324	 0.0492213743	-0.312325
N	 0.0225970143	-0.0342173003	 0.0131338313	 0.169215
N	-0.1742793616	-0.7126778434	-1.1086654419	-0.224191
C	-0.1611651275	-1.987117211	-0.7107749423	-0.152086
C	 0.0497983662	-2.028981647	 0.677025828	 0.342451
N	 0.1575860697	-0.7674366936	 1.1125413276	-0.345498
C	 0.147543417	-3.1844440356	 1.5886939043	-0.107104
C	 1.1789829146	-3.2004451537	 2.6666494848	-0.23253
N	-0.2381421399	-3.0333211136	 3.0044904316	-0.319057
H	 0.8946676686	 1.75975743	 0.6175099897	 0.155326
H	 0.0857333095	 1.7672948391	-0.9790484692	 0.165349
H	-0.883407103	 1.7890452285	 0.5208199355	 0.152208
H	-0.2943340603	-2.7917281155	-1.4160714283	 0.125749
H	-0.1529456206	-4.1300817919	 1.1456822909	 0.094075
H	 1.6194045678	-4.1444944387	 2.9758489662	 0.119332
H	 1.8350690802	-2.336915573	 2.7280422283	 0.124145
H	-0.4257816845	-2.0466928726	 3.1740105691	 0.244941
37.0034	57.9504	142.4418	155.677	233.0662	358.1898	435.4389	453.4881	641.6228	675.3612	743.1878	760.9086	830.669	867.5935	887.9319	974.2146	1001.7077	1020.5751	1046.0608	1085.4267	1117.7887	1145.6199	1148.354	1183.0671	1190.094	1265.4662	1310.3103	1339.3195	1352.3195	1369.2449	1427.4665	1449.2474	1470.2332	1480.0736	1502.4662	1511.166	1559.6001	3057.132	3109.3701	3128.6677	3144.9678	3178.1904	3201.4027	3269.804	3492.5894
CN1N=CC(=N1)C1CN1	Cn1ncc(n1)[C@H]1CN1	
InChI=1S/C5H8N4/c1-9-7-3-5(8-9)4-2-6-4/h3-4,6H,2H2,1H3	InChI=1S/C5H8N4/c1-9-7-3-5(8-9)4-2-6-4/h3-4,6H,2H2,1H3/t4-/m1/s1
