23
gdb 112626	2.71421	1.04857	0.90959	2.3378	82.63	-0.2443	0.0704	0.3147	1416.5167	0.203655	-425.404391	-425.394026	-425.393082	-425.439605	38.551	
C	 0.5186914547	 0.5557816063	-0.5149873197	-0.237667
O	-0.0483173223	-0.5406688909	 0.1649230605	-0.239298
C	-1.447881771	-0.439052661	 0.3223009477	 0.144117
C	-2.2736784237	-0.832042209	-0.9409293733	-0.307856
C	-2.5390747447	-2.2352561249	-0.3082275946	 0.33953
C	-3.987276895	-2.712699667	-0.3092569037	-0.483405
C	-1.5951956096	-3.2842250916	-0.9103146537	-0.11838
O	-1.541500172	-4.4920957321	-0.1661363579	-0.425882
C	-1.9921081341	-1.6886445809	 1.0478251435	-0.286981
H	 1.5968958272	 0.3855395708	-0.5642362638	 0.127449
H	 0.131248327	 0.6589627209	-1.5398578055	 0.104989
H	 0.3307853669	 1.5012429585	 0.0181118859	 0.103756
H	-1.7008533693	 0.534749472	 0.7666765086	 0.059518
H	-3.1852270512	-0.2376999312	-1.0524309849	 0.092735
H	-1.7306533236	-0.8193361282	-1.8913568705	 0.098781
H	-4.332252492	-2.9426836248	-1.3250740262	 0.110945
H	-4.1122679666	-3.6133123845	 0.3042134956	 0.109081
H	-4.6554294479	-1.9500092026	 0.1040851322	 0.113512
H	-1.8816496326	-3.4721638614	-1.959166434	 0.07675
H	-0.5747574454	-2.890810978	-0.9104402629	 0.122903
H	-2.390258484	-4.9354555597	-0.2552316595	 0.282509
H	-1.2384708657	-2.303339255	 1.5436071471	 0.122481
H	-2.7835055052	-1.4449285458	 1.7617803388	 0.090415
62.1134	106.7375	134.1479	168.6982	214.5108	238.5454	262.7543	298.8078	318.6508	337.7688	363.4426	411.2324	467.6907	507.6082	676.908	808.304	813.6083	837.7191	894.3124	929.0265	946.7091	974.9255	1004.9339	1011.3564	1071.0966	1096.1645	1119.8902	1147.8349	1163.3278	1174.3495	1183.3141	1228.3626	1244.8019	1256.2341	1283.8515	1294.7573	1330.9516	1377.1291	1385.8051	1407.2645	1424.3344	1460.3919	1479.3302	1481.2985	1486.2768	1491.1201	1501.3852	1507.7095	1510.0004	2960.7155	2972.6097	2987.1498	3015.6104	3020.3228	3046.653	3064.2474	3078.0937	3089.4253	3092.8178	3100.2	3114.392	3127.0187	3827.4968
COC1CC(C)(CO)C1	CO[C@H]1C[C@@](C)(CO)C1	
InChI=1S/C7H14O2/c1-7(5-8)3-6(4-7)9-2/h6,8H,3-5H2,1-2H3	InChI=1S/C7H14O2/c1-7(5-8)3-6(4-7)9-2/h6,8H,3-5H2,1-2H3/t6-,7+
