18
gdb 28903	2.31517	1.78271	1.01991	3.0169	82.36	-0.2388	-0.0014	0.2374	1155.2947	0.148379	-402.026368	-402.017744	-402.0168	-402.059305	32.451	
C	 0.0297670298	 1.5318091141	-0.0063050303	-0.490538
C	 0.0105660658	 0.0280962101	-0.0112741324	 0.180344
C	-0.0795094274	-0.7146261118	-1.1857772905	-0.06279
N	-0.1007220652	-2.0485216351	-1.251821602	-0.296592
C	-0.0293159045	-2.7031481309	-0.0935302017	-0.062681
C	 0.064399609	-2.0987212675	 1.1595198706	 0.15942
C	 0.1415764108	-2.906057966	 2.4294452935	-0.541787
C	 0.08353165	-0.698924523	 1.1824172761	 0.24288
O	 0.1718949741	 0.010827837	 2.3389994462	-0.426412
H	 0.9462284941	 1.918162387	 0.4528161405	 0.135638
H	-0.0352197258	 1.9224850324	-1.0249852783	 0.12278
H	-0.8054996149	 1.9401272806	 0.5729808771	 0.135636
H	-0.1381918315	-0.1870479435	-2.1364917372	 0.099115
H	-0.0469954999	-3.7905905453	-0.1525811915	 0.097386
H	 1.0698850652	-2.7173336248	 2.9855030316	 0.132278
H	-0.6969493899	-2.6952245216	 3.1069413423	 0.132272
H	 0.1129323426	-3.9755304329	 2.2074967727	 0.141833
H	 0.2154428476	-0.5958282984	 3.0853655332	 0.301216
126.2416	135.3504	157.7968	238.2594	269.6535	287.3395	303.1996	389.2569	483.5298	493.574	499.1791	590.3835	603.2178	671.7793	783.5905	853.1494	921.8328	941.3395	969.4228	1013.4241	1038.3938	1062.3287	1066.6935	1196.4706	1237.9559	1260.863	1325.1248	1327.3903	1351.4897	1414.0792	1417.669	1451.7679	1474.728	1477.9424	1488.2977	1501.7969	1523.0491	1620.1298	1650.9511	3005.922	3034.3436	3050.8169	3086.8771	3115.7313	3118.7905	3133.9927	3140.4054	3825.4198
CC1=CN=CC(C)=C1O	Cc1cncc(C)c1O	
InChI=1S/C7H9NO/c1-5-3-8-4-6(2)7(5)9/h3-4H,1-2H3,(H,8,9)	InChI=1S/C7H9NO/c1-5-3-8-4-6(2)7(5)9/h3-4H,1-2H3,(H,8,9)
