19
gdb 51621	5.29966	0.76257	0.7515	2.8464	78.91	-0.245	0.0287	0.2736	1535.9279	0.159942	-419.192942	-419.184231	-419.183287	-419.227462	32.327	
O	 0.540659783	-0.6392100105	 0.4165507758	-0.320618
C	 0.1098691216	 0.4905897004	 0.3295746197	 0.151313
N	 0.8413298469	 1.590835761	-0.0021725114	-0.287961
C	 2.2527549925	 1.5535539078	-0.291886753	 0.07051
C	 2.74899234	 2.0733277437	-1.6764792665	-0.33921
C	 3.9116089541	 2.7387632083	-0.9305302157	 0.376224
C	 5.352146549	 2.5584604364	-1.2076124031	-0.301489
N	 4.7108554283	 3.8880833211	-1.3266420132	-0.368528
C	 3.1800298233	 2.5909012193	 0.4068986628	-0.321057
H	-0.9514420426	 0.748757463	 0.5178518464	 0.073389
H	 0.3652783163	 2.4792024349	-0.0396820227	 0.243801
H	 2.5757000257	 0.5286268882	-0.1112073826	 0.130128
H	 2.9761669735	 1.329438028	-2.4441671857	 0.114446
H	 2.0562792604	 2.8148883628	-2.09260197	 0.097364
H	 6.0603812031	 2.4687453751	-0.3879248736	 0.121553
H	 5.6393363018	 2.0322798185	-2.1149730048	 0.113603
H	 4.5483678732	 4.1087895565	-2.3068622067	 0.229463
H	 2.6412446851	 3.5086212917	 0.6683793552	 0.101879
H	 3.7485384451	 2.2533852637	 1.2761061392	 0.115191
36.4042	61.1345	173.8669	204.8977	299.1797	309.5324	323.7976	414.6851	455.7752	527.7602	536.0058	697.7962	793.6991	822.7581	851.6975	886.3424	914.2362	959.4981	970.3201	1001.5018	1006.0535	1034.0298	1056.0915	1080.0574	1119.561	1138.2877	1191.1887	1220.3596	1231.8124	1257.1939	1263.9182	1275.0385	1299.8872	1364.893	1421.5002	1433.2126	1467.3351	1493.8683	1516.1016	1535.0872	1806.9305	2934.1155	3033.4233	3045.9863	3099.8502	3101.3506	3110.06	3133.9877	3186.5305	3487.5885	3620.0992
O=CNC1CC2(CN2)C1	O=CN[C@H]1C[C@]2(CN2)C1	
InChI=1S/C6H10N2O/c9-4-7-5-1-6(2-5)3-8-6/h4-5,8H,1-3H2,(H,7,9)	InChI=1S/C6H10N2O/c9-4-7-5-1-6(2-5)3-8-6/h4-5,8H,1-3H2,(H,7,9)/t5-,6+
