16
gdb 34463	3.63055	1.50066	1.2618	4.7072	72.72	-0.2509	0.0142	0.265	981.6988	0.127635	-396.885276	-396.878548	-396.877603	-396.916282	26.952	
N	 0.0290382338	-1.0878385482	-0.0345429052	-0.338438
C	 0.0164403112	 0.068298705	-0.048078143	 0.215978
C	-0.0663015694	 1.5023259439	-0.0525605591	 0.20162
C	-1.2945327584	 2.1784004818	 0.592528661	-0.264793
N	-1.4378444721	 3.4789690282	-0.0937078681	-0.277273
C	-0.1419533045	 3.7006476505	-0.728731023	-0.068607
C	 0.970128444	 3.6417267507	 0.3473509898	-0.153203
N	 1.2690510121	 2.1982122525	 0.0356275103	-0.172601
C	 0.4194643773	 2.3186161433	-1.1915344264	-0.093639
H	-2.186908444	 1.5599549947	 0.4728142769	 0.132427
H	-1.1327893212	 2.3193214667	 1.6660636523	 0.134917
H	-2.1528901335	 3.4024238091	-0.8114281754	 0.227409
H	-0.155315799	 4.5413362437	-1.4205176117	 0.091459
H	 1.855597468	 4.2235212772	 0.0853710323	 0.127786
H	 0.679377489	 3.8572554225	 1.3790439393	 0.120226
H	 0.7157325866	 1.9453766085	-2.1645046802	 0.116732
151.3643	162.4737	282.5213	387.981	429.6732	497.7129	537.0463	554.3475	639.7192	693.7764	787.2328	824.6694	843.3141	866.2424	905.8064	914.9197	978.9296	986.7346	1005.363	1043.7875	1079.3575	1111.2127	1153.4283	1183.3242	1198.2369	1217.8567	1258.5234	1294.3988	1301.7616	1339.4347	1389.4927	1453.9473	1492.47	1513.7368	2359.021	3052.5422	3068.1471	3107.0181	3126.5698	3134.3298	3191.2917	3505.7325
N#CC12CNC3CN1C23	N#C[C@@]12CN[C@H]3CN1[C@@H]23	
InChI=1S/C6H7N3/c7-2-6-3-8-4-1-9(6)5(4)6/h4-5,8H,1,3H2	InChI=1S/C6H7N3/c7-2-6-3-8-4-1-9(6)5(4)6/h4-5,8H,1,3H2/t4-,5+,6-,9?/m0/s1
