19
gdb 84556	2.81676	1.76729	1.36474	1.4222	80.25	-0.2396	0.0044	0.2439	984.4488	0.161376	-385.81654	-385.809547	-385.808603	-385.847499	29.511	
O	-0.0504194936	 1.4413505199	 0.0125568787	-0.430429
C	 0.0147218635	 0.0270443031	-0.0370491845	-0.06075
C	 0.671317444	-0.6126665699	 1.2060151309	-0.096077
C	 0.0377498402	-1.7030584816	 1.6628082902	-0.163407
C	-1.0649100356	-2.0718395275	 0.6965970245	-0.007965
C	-2.6236916462	-1.8673644329	 0.7097822416	-0.090836
C	-2.3836577549	-0.3977047864	 1.1144798186	-0.2631
C	-1.3142643221	-0.7125964633	 0.006855564	 0.331681
C	-2.4669925392	-1.3967375524	-0.7892005708	-0.319154
H	-0.5765388707	 1.6758450735	 0.7853987935	 0.281751
H	 0.5943571499	-0.1996769022	-0.9411921208	 0.098589
H	 1.5634078472	-0.1700559165	 1.6382894326	 0.100494
H	 0.3546787612	-2.2906556777	 2.5181971952	 0.095321
H	-0.7470407822	-2.8864205581	 0.0326473131	 0.076283
H	-3.3921399658	-2.5406114287	 1.0940195185	 0.071225
H	-3.1644180065	 0.3157147248	 0.8370430155	 0.090026
H	-2.0163688498	-0.2193528739	 2.1265107499	 0.095342
H	-2.175737448	-2.1591034365	-1.5165586739	 0.094923
H	-3.2640975913	-0.7557551236	-1.174222167	 0.096083
156.3776	229.3181	308.6314	328.4688	362.0081	501.1802	519.9829	538.9651	596.706	675.2534	739.0598	776.8288	804.7087	855.5927	881.3609	930.5737	943.6775	953.3004	970.0385	982.4463	1016.5902	1037.6974	1066.5569	1077.0396	1106.2297	1123.3067	1135.3803	1147.6466	1155.3457	1201.0154	1212.1532	1236.3918	1249.9458	1270.9668	1302.1886	1342.5339	1362.4408	1422.1121	1494.7186	1533.8356	1627.2551	3012.7584	3030.1068	3051.898	3057.6925	3093.8126	3120.1298	3126.1326	3171.7223	3196.3407	3799.3457
OC1C=CC2C3CC12C3	O[C@H]1C=C[C@H]2[C@H]3C[C@@]12C3	
InChI=1S/C8H10O/c9-7-2-1-6-5-3-8(6,7)4-5/h1-2,5-7,9H,3-4H2	InChI=1S/C8H10O/c9-7-2-1-6-5-3-8(6,7)4-5/h1-2,5-7,9H,3-4H2/t5-,6-,7-,8-/m0/s1
