18
gdb 89139	2.13251	1.70936	1.16838	4.8844	77.21	-0.2528	0.0288	0.2816	1110.4797	0.14633	-401.932877	-401.924073	-401.923129	-401.966029	32.908	
C	-0.1880702292	 1.5097575794	-0.077801009	-0.430623
C	 0.0952163337	 0.0321979695	 0.0766880631	 0.136962
O	 1.1699241652	-0.4795973871	-0.7790253165	-0.327026
C	 1.7316425463	-1.1910262978	 0.3181286698	 0.451966
C	 2.2601091424	-2.5648958186	 0.0669455152	-0.490141
C	 2.2684213298	-0.2227867314	 1.3560286156	-0.252111
C	 2.8526112572	 1.0503720431	 1.0340369577	 0.311905
N	 3.3570674541	 2.0630122669	 0.7914240187	-0.35292
C	 0.776477491	-0.5658526563	 1.3077490109	-0.222516
H	 0.6836021714	 2.1235810461	 0.150301442	 0.162988
H	-0.4999425374	 1.7187083218	-1.1059815119	 0.1332
H	-1.0089679972	 1.7966349224	 0.5882418176	 0.121055
H	-0.8095191021	-0.5508732148	-0.1402922725	 0.094578
H	 3.1003193439	-2.5233258862	-0.6342917433	 0.148146
H	 2.6118393224	-3.0226476677	 0.9953864647	 0.129252
H	 1.4840676653	-3.2012970487	-0.3685883605	 0.137842
H	 2.7639407805	-0.7204844156	 2.1857586451	 0.135669
H	 0.2793729829	-0.974427495	 2.1776028734	 0.111774
128.8644	139.7984	175.7781	195.9847	212.8167	228.8197	317.2221	379.8534	410.5184	479.5193	569.8592	625.9978	677.5838	737.5071	792.8224	854.8388	879.4581	927.6464	941.2625	985.2587	1024.8302	1047.0004	1085.7808	1105.0655	1119.4396	1155.901	1204.2756	1258.9845	1309.3542	1324.1011	1387.1111	1409.2136	1415.1747	1466.218	1475.5504	1486.2318	1497.116	1499.1259	2349.6214	3017.2966	3040.1535	3045.5019	3107.6472	3107.8201	3123.151	3150.7463	3156.6513	3201.1052
CC1OC2(C)C(C#N)C12	C[C@H]1O[C@@]2(C)[C@@H](C#N)[C@@H]12	
InChI=1S/C7H9NO/c1-4-6-5(3-8)7(6,2)9-4/h4-6H,1-2H3	InChI=1S/C7H9NO/c1-4-6-5(3-8)7(6,2)9-4/h4-6H,1-2H3/t4-,5+,6-,7+/m1/s1
