22
gdb 59716	3.03652	1.20205	0.96765	2.1575	80.98	-0.2262	0.0688	0.2951	1283.8605	0.195111	-404.332498	-404.323556	-404.322612	-404.365992	34.831	
C	 0.0450697888	 1.5563765544	 0.0445473108	-0.406714
C	 0.0042184583	 0.0278855466	 0.0213582538	 0.12712
O	 0.735038261	-0.5178285788	 1.1191100463	-0.43329
C	-1.4219668115	-0.5366681725	-0.0178227352	 0.006758
C	-2.2469660641	-0.1552932284	-1.2694354518	-0.272022
C	-3.2282708393	-1.3393785149	-1.4370237655	-0.156683
N	-2.6170587303	-2.5374687382	-0.8292794806	-0.103589
C	-1.2399158247	-2.780031908	-1.2852590817	-0.248884
C	-1.4864416356	-2.060552144	-0.0085100921	-0.015
H	 1.0795871542	 1.9027098296	 0.1172348535	 0.124578
H	-0.4026628708	 1.9870538415	-0.8561749105	 0.120833
H	-0.5075705121	 1.9453538064	 0.9097535002	 0.104778
H	 0.5412190433	-0.3337544241	-0.8646088786	 0.086943
H	 0.349130922	-0.166430216	 1.9294495807	 0.274464
H	-1.9469063138	-0.1765176809	 0.8807416237	 0.061488
H	-2.7681679222	 0.7982611513	-1.1577848987	 0.104072
H	-1.5913618937	-0.0567703609	-2.1416307472	 0.104974
H	-4.1598199908	-1.1433730345	-0.8943844851	 0.106161
H	-3.490567741	-1.5343269662	-2.4817658511	 0.104451
H	-0.9347432288	-3.8219330442	-1.2642581289	 0.115438
H	-0.8618891385	-2.223693503	-2.1399603444	 0.104416
H	-1.3186274201	-2.5733025151	 0.9325142124	 0.08971
81.2259	119.0116	164.8395	243.3741	268.8046	280.9963	335.4047	374.7086	393.6292	465.357	513.6715	640.5434	652.8638	746.4833	828.3488	855.6467	872.0961	910.2495	943.961	972.4978	980.7164	1005.7746	1013.7641	1050.7014	1095.8716	1097.0543	1107.2595	1145.3458	1155.8117	1176.7122	1200.8657	1231.3482	1258.1766	1272.1752	1313.0972	1317.7037	1333.2335	1345.3175	1390.4869	1393.2531	1402.8066	1419.0225	1489.5138	1492.0833	1495.8148	1499.4293	1517.7592	2981.3945	3021.9913	3036.8277	3038.6713	3044.4226	3081.9952	3095.0112	3102.2118	3107.2443	3119.8386	3164.5644	3189.599	3795.3494
CC(O)C1CCN2CC12	C[C@@H](O)[C@H]1CCN2C[C@@H]12	
InChI=1S/C7H13NO/c1-5(9)6-2-3-8-4-7(6)8/h5-7,9H,2-4H2,1H3	InChI=1S/C7H13NO/c1-5(9)6-2-3-8-4-7(6)8/h5-7,9H,2-4H2,1H3/t5-,6-,7+,8?/m1/s1
