20
gdb 75656	2.44208	1.83001	1.27004	3.8991	79.52	-0.2259	0.0298	0.2557	1051.2057	0.17167	-403.168165	-403.159682	-403.158738	-403.200979	32.715	
C	-0.1716871444	 1.356400777	 0.0298456477	-0.351212
N	 0.1905665254	-0.0413642393	 0.0524558101	-0.09593
C	 0.0473007405	-0.8719981026	-1.0458381726	 0.416605
O	-0.0310529001	-0.5581336012	-2.2108383192	-0.401739
C	-0.0498163262	-2.2497188474	-0.3698352396	-0.163905
C	 1.0183444866	-2.0985493695	 0.7578678785	-0.249236
C	 0.0519950131	-0.9670656176	 1.2156024473	 0.332218
C	 0.117388754	-0.3197339126	 2.5742674263	-0.508076
C	-1.1090765608	-1.9018230794	 0.7350923385	-0.26549
H	 0.519057839	 1.9600290693	 0.6269955343	 0.123441
H	-0.1159381653	 1.6830854706	-1.0110554872	 0.161318
H	-1.1938825552	 1.5364158622	 0.3934915419	 0.115318
H	-0.1223180646	-3.1106349289	-1.0289184728	 0.088599
H	 1.0289692943	-2.9503930483	 1.4424182532	 0.101091
H	 2.0317244517	-1.8041687769	 0.4758898738	 0.105954
H	 1.066999985	 0.207664762	 2.7132263763	 0.13039
H	-0.6959873737	 0.398163104	 2.7211529325	 0.127184
H	 0.0358723816	-1.0822884411	 3.3539519713	 0.125557
H	-2.0436160119	-1.4277390956	 0.4227353042	 0.105515
H	-1.3071337193	-2.7370075048	 1.4120832154	 0.102398
86.1669	162.6386	179.1079	220.2658	255.4773	298.3023	309.1482	480.0231	489.4644	502.9186	565.9695	683.3134	716.8636	759.2803	840.5766	852.5906	870.9688	914.9831	950.3116	990.7264	998.3672	1036.4828	1052.3116	1114.5478	1130.7124	1155.3168	1192.2497	1199.9968	1212.2415	1234.7161	1246.954	1265.0124	1325.9918	1386.9723	1418.2883	1445.2848	1480.9097	1485.0153	1493.1989	1496.4613	1515.8705	1520.6157	1843.1631	2995.1153	3036.8343	3053.4379	3063.0519	3070.2383	3104.0549	3113.7053	3118.1145	3128.6547	3130.9626	3160.3179
CN1C(=O)C2CC1(C)C2	CN1C(=O)[C@H]2C[C@]1(C)C2	
InChI=1S/C7H11NO/c1-7-3-5(4-7)6(9)8(7)2/h5H,3-4H2,1-2H3	InChI=1S/C7H11NO/c1-7-3-5(4-7)6(9)8(7)2/h5H,3-4H2,1-2H3/t5-,7+
