16
gdb 72508	2.34031	1.92085	1.72819	1.268	68.54	-0.2231	-0.0147	0.2083	883.5371	0.125701	-437.882097	-437.874824	-437.873879	-437.913383	28.994	
O	 0.0280690957	 1.3909632446	-0.1087136674	-0.502686
C	 0.0147220206	 0.0017570017	-0.1107723333	 0.280437
C	-1.3799709665	-0.677467767	 0.0354352992	-0.207588
N	-1.0569478718	-2.0703310511	 0.487988398	-0.302666
C	 0.4399576856	-2.1268980116	 0.5984873359	-0.181337
C	 1.0186266743	-1.9774410573	-0.7905895932	-0.05839
C	 0.7734806237	-0.7224833026	-1.2040803041	-0.133194
C	 0.725237905	-0.6960447328	 1.0803668486	 0.37353
O	 1.2591844364	-0.1807285464	 2.0197939422	-0.343235
H	 0.5334866567	 1.6606661643	 0.6719356109	 0.292645
H	-1.9692344433	-0.1291841109	 0.7781354453	 0.111103
H	-1.9331053783	-0.6952886986	-0.9079434736	 0.115132
H	-1.4524967977	-2.2243621079	 1.41097434	 0.228552
H	 0.7740725626	-2.9664056963	 1.2032270138	 0.091989
H	 1.514181305	-2.7688186125	-1.3364992839	 0.117278
H	 1.0367321219	-0.2618897956	-2.1477479983	 0.11843
146.1786	219.5848	233.1546	296.64	361.0932	373.7918	448.2845	527.9853	641.3066	655.8743	673.1448	731.9758	761.903	787.5524	824.5663	884.4742	936.5247	953.3294	985.2533	996.8702	1045.2669	1065.9257	1110.7687	1117.046	1193.6278	1206.2912	1252.1028	1270.7435	1329.8045	1366.3505	1394.7462	1419.5343	1514.8665	1613.2902	1879.1352	3039.1265	3086.0841	3153.8453	3209.6984	3232.636	3508.0146	3728.1271
OC12CNC(C=C1)C2=O	O[C@@]12CN[C@@H](C=C1)C2=O	
InChI=1S/C6H7NO2/c8-5-4-1-2-6(5,9)3-7-4/h1-2,4,7,9H,3H2	InChI=1S/C6H7NO2/c8-5-4-1-2-6(5,9)3-7-4/h1-2,4,7,9H,3H2/t4-,6+/m0/s1
