12
gdb 130507	4.08388	1.72774	1.2141	4.4518	72.84	-0.2617	-0.1087	0.153	904.2136	0.079728	-431.615339	-431.609557	-431.608612	-431.645461	22.813	
O	-0.089764491	 1.2094212574	 0.0094741313	-0.196063
N	 0.9826265078	 2.0803429517	 0.0039157131	-0.072328
C	 2.1842850025	 1.5799329485	-0.0102583959	-0.045446
C	 2.4163277756	 0.1889854691	-0.019997161	 0.25409
C	 3.454453709	-0.699421504	-0.0348954257	-0.332328
C	 2.8214715192	-2.0008700877	-0.035392696	 0.002259
N	 1.5016095042	-1.9792924189	-0.0230593091	-0.297301
C	 1.2050331518	-0.6348849556	-0.0128955258	 0.412973
N	 0.0015781824	-0.1551306837	 0.0012184418	-0.140616
H	 2.9740992754	 2.3257165985	-0.0138622785	 0.152571
H	 4.5154198138	-0.4984454825	-0.044135495	 0.128747
H	 3.3509773094	-2.9476173228	-0.0456923891	 0.133441
202.7953	238.1262	409.755	431.662	564.3841	581.6043	611.3023	626.7844	760.1302	792.5163	795.1317	822.8201	900.431	929.9022	953.073	964.6701	969.083	1024.0682	1227.9391	1249.8344	1300.1724	1355.1603	1371.4199	1444.9533	1550.0473	1634.3868	1655.5082	3178.5196	3201.8007	3248.7017
O1N=CC2=CC=NC2=N1	o1ncc2ccnc2n1	
InChI=1S/C5H3N3O/c1-2-6-5-4(1)3-7-9-8-5/h1-3H	InChI=1S/C5H3N3O/c1-2-6-5-4(1)3-7-9-8-5/h1-3H
