19
gdb 93276	2.27529	1.6558	1.2227	3.4169	70.5	-0.2669	0.0054	0.2723	1084.0019	0.158317	-460.216757	-460.207668	-460.206723	-460.250034	34.387	
C	-0.5126516464	 1.4255685762	-0.0268734461	-0.433533
C	 0.0615178141	 0.0132184959	 0.0007925988	-0.017842
C	 1.1674074998	-0.2441960889	-1.0358078365	-0.10512
O	 1.9131281716	-1.3824899416	-0.5484433818	-0.22021
C	 1.6607029594	-1.5680348668	 0.7637630006	 0.414666
O	 2.0884170405	-2.4880197829	 1.4047812779	-0.368312
C	 0.7456609196	-0.4573283238	 1.2983391101	 0.232449
C	 1.6053767255	 0.6073147029	 1.998616975	-0.435627
O	-0.1897029675	-1.0081288224	 2.2013489199	-0.481759
H	 0.2613526012	 2.1841219513	 0.1251240497	 0.122383
H	-0.9930956796	 1.6290889284	-0.9895541297	 0.121493
H	-1.2686439278	 1.5484458012	 0.7538217266	 0.140704
H	-0.7464403468	-0.7059659803	-0.1776991002	 0.103755
H	 0.7884759025	-0.5004516836	-2.0271214046	 0.130587
H	 1.8521974045	 0.6071122163	-1.1310759936	 0.117619
H	 2.3070369332	 1.0966419041	 1.314713971	 0.118972
H	 0.9565320536	 1.3674908364	 2.4403102226	 0.133563
H	 2.1834527257	 0.13734347	 2.7991783811	 0.134639
H	 0.2662757667	-1.7327879823	 2.6526375993	 0.291572
90.0562	185.3967	208.8653	219.5667	251.5682	271.5179	277.3735	299.9103	373.6721	406.5816	471.4747	558.8963	592.6817	658.3522	722.2236	760.4118	856.8274	911.3513	954.5207	964.3892	1031.7586	1037.0016	1089.969	1125.9291	1142.744	1174.3644	1189.6425	1241.2266	1255.5086	1334.9623	1357.018	1389.6321	1400.4299	1414.5256	1422.242	1485.9336	1491.6483	1500.7985	1505.0278	1520.7589	1869.4963	3033.4372	3037.4122	3041.0901	3046.9112	3103.08	3111.3682	3113.0281	3117.6194	3128.6227	3744.1004
CC1COC(=O)C1(C)O	C[C@H]1COC(=O)[C@]1(C)O	
InChI=1S/C6H10O3/c1-4-3-9-5(7)6(4,2)8/h4,8H,3H2,1-2H3	InChI=1S/C6H10O3/c1-4-3-9-5(7)6(4,2)8/h4,8H,3H2,1-2H3/t4-,6+/m0/s1
