23
gdb 75435	2.50951	1.34388	1.10237	1.2586	87.92	-0.2316	0.0304	0.2621	1252.6709	0.204629	-388.316969	-388.307374	-388.30643	-388.350471	37.582	
C	 0.0141177184	 1.5405051477	 0.0325487293	-0.4778
C	 0.007916723	 0.0393337117	-0.0445093099	 0.306216
C	 0.0410626416	-0.6315940676	-1.1955814856	-0.156057
C	 0.062375493	-2.1309660805	-1.2592088445	-0.126859
O	 0.2910677596	-2.7514276632	-0.009536969	-0.290322
C	-0.4279534443	-2.190663203	 1.098039909	 0.357051
C	-1.9461687083	-2.3265695207	 0.8913487741	-0.425412
C	 0.0182958512	-3.0182227599	 2.3029136622	-0.417229
C	-0.01915472	-0.7122716007	 1.2666822249	-0.311613
H	 0.8671801359	 1.9017567662	 0.6219059253	 0.122701
H	 0.0703054337	 1.996998326	-0.9594932997	 0.11892
H	-0.8880308986	 1.9161342714	 0.5327452091	 0.120873
H	 0.0471699529	-0.1061544522	-2.1480397005	 0.078669
H	-0.8734821937	-2.5000828608	-1.7177515342	 0.093417
H	 0.8761950595	-2.4722250867	-1.911850137	 0.112496
H	-2.1982859703	-3.3621548149	 0.644343881	 0.118774
H	-2.4812800217	-2.0520653027	 1.8057484842	 0.11105
H	-2.306558124	-1.6784438151	 0.0878916662	 0.120301
H	 1.10825253	-2.9991472747	 2.3890121567	 0.119488
H	-0.4136127144	-2.6210610765	 3.2267423845	 0.108581
H	-0.2975779163	-4.0594383046	 2.1905961946	 0.116652
H	 0.9724813846	-0.6583354056	 1.7376090141	 0.104956
H	-0.7087108519	-0.2187566137	 1.9647299152	 0.095149
103.0422	168.1603	203.9124	220.529	243.7996	275.001	290.3059	317.1037	344.8575	403.8691	430.9687	451.0787	491.5957	527.3355	698.9852	766.56	809.92	858.7371	889.3649	900.1011	937.7576	958.5535	988.1379	1017.6667	1039.7039	1049.7583	1066.0018	1128.9099	1156.9659	1185.0438	1219.1926	1242.8198	1271.4894	1289.6598	1330.2667	1379.0888	1393.8321	1399.2045	1411.8824	1415.5389	1466.6993	1478.1029	1480.5129	1486.2935	1491.5532	1493.4957	1498.4471	1515.2531	1750.3117	2933.1786	3004.3828	3013.7175	3034.2905	3036.4295	3037.9584	3043.4264	3058.5173	3108.4959	3108.8798	3115.7704	3118.5193	3119.9309	3151.0945
CC1=CCOC(C)(C)C1	CC1=CCOC(C)(C)C1	
InChI=1S/C8H14O/c1-7-4-5-9-8(2,3)6-7/h4H,5-6H2,1-3H3	InChI=1S/C8H14O/c1-7-4-5-9-8(2,3)6-7/h4H,5-6H2,1-3H3
