17
gdb 127133	2.6713	1.53297	1.01124	0.4544	72.22	-0.1914	0.0114	0.2028	1147.7953	0.136556	-451.315816	-451.306701	-451.305757	-451.349627	32.723	
C	-0.0792085849	 1.5475600384	 0.170303244	-0.31832
N	-0.0626705549	 0.094933434	 0.1217808651	-0.160982
C	 0.8721192033	-0.5278321913	 1.0512550613	-0.352624
C	-1.2992697185	-0.5131006374	-0.024110783	 0.330618
N	-2.4436960155	 0.1657507292	-0.1345524599	-0.30484
N	-3.3648696978	-0.7833680305	-0.3122882037	-0.108945
N	-2.9134181525	-2.0385859095	-0.345211477	-0.296391
C	-1.6135218218	-1.8934944902	-0.1578825133	 0.298835
O	-0.7519809583	-2.9340366415	-0.1093859644	-0.434063
H	 0.9485889016	 1.912448236	 0.0873696591	 0.114598
H	-0.6658606574	 1.9379545069	-0.6632277178	 0.142353
H	-0.5166647768	 1.9398635395	 1.1029134725	 0.110223
H	 0.6217315007	-0.3205398926	 2.1055347301	 0.105303
H	 0.8848484254	-1.6080583206	 0.9043080188	 0.158811
H	 1.8767797164	-0.1401572811	 0.8575099564	 0.121084
H	-4.3168099752	-0.559630793	-0.5417562482	 0.287055
H	-1.2695431239	-3.7413581563	-0.2185452899	 0.307286
65.9778	155.1418	190.5283	196.8172	224.7099	232.9806	306.3061	331.5955	353.1504	381.9101	454.4226	559.6094	615.7852	676.9277	748.6747	756.2632	971.4696	977.1141	1083.8548	1126.5883	1146.4148	1175.587	1185.0773	1225.303	1241.8222	1283.7312	1349.3391	1428.5124	1448.247	1465.5853	1478.0344	1488.5986	1497.204	1501.6216	1517.5289	1598.584	1624.7803	2962.0635	2975.79	3077.0623	3078.3568	3134.089	3150.6374	3697.1773	3799.9891
CN(C)C1=NNN=C1O	CN(C)c1n[nH]nc1O	
InChI=1S/C4H8N4O/c1-8(2)3-4(9)6-7-5-3/h1-2H3,(H2,5,6,7,9)	InChI=1S/C4H8N4O/c1-8(2)3-4(9)6-7-5-3/h1-2H3,(H2,5,6,7,9)
