15
gdb 74506	3.72854	1.2572	1.06644	4.8254	71.3	-0.2683	-0.0064	0.2619	1115.4316	0.112721	-416.825931	-416.818203	-416.817259	-416.858223	28.894	
C	 0.0536152401	 1.4511078796	-0.0422527764	-0.481738
C	-0.033812161	-0.0317102843	 0.0160349057	 0.388737
N	-1.08888751	-0.7315548863	 0.1836380207	-0.338014
C	-0.6785926534	-2.1143032039	 0.1214109742	 0.185149
C	-0.0641399782	-2.5648994208	-1.2018832217	-0.343404
C	 0.838854922	-2.07183694	-0.1202450527	 0.029209
O	 1.1554963029	-0.6989149731	-0.1231243732	-0.236097
C	-1.3451350784	-3.0617674877	 0.9698080244	 0.232895
N	-1.857065743	-3.8493488036	 1.6438737998	-0.342917
H	 0.7969118801	 1.8121533155	 0.6747490476	 0.155148
H	 0.3724920397	 1.7765865353	-1.037509443	 0.153507
H	-0.9210731578	 1.8814666587	 0.1842232049	 0.163898
H	-0.0462006473	-3.6333199582	-1.3825818499	 0.150538
H	-0.2581765405	-1.940380397	-2.0670262888	 0.141244
H	 1.5834359649	-2.6918724041	 0.3601840983	 0.141846
119.4716	141.6553	162.1273	210.9628	339.0414	373.9218	449.1646	496.5137	542.9226	584.0733	653.4705	690.6893	769.7185	826.8345	875.2704	920.8268	955.3088	1004.9931	1029.9603	1057.9385	1069.1942	1084.5884	1143.8011	1215.37	1248.157	1312.9785	1379.6899	1414.3482	1460.0006	1473.0722	1475.3651	1706.4115	2360.6827	3053.4044	3112.3216	3140.1415	3169.8165	3214.6567	3239.7618
CC1=NC2(CC2O1)C#N	CC1=N[C@]2(C[C@H]2O1)C#N	
InChI=1S/C6H6N2O/c1-4-8-6(3-7)2-5(6)9-4/h5H,2H2,1H3	InChI=1S/C6H6N2O/c1-4-8-6(3-7)2-5(6)9-4/h5H,2H2,1H3/t5-,6-/m1/s1
