18
gdb 110480	4.14476	1.28842	1.27014	2.4915	72.96	-0.2274	0.0688	0.2962	1037.3893	0.149336	-401.850153	-401.843096	-401.842152	-401.881888	28.062	
O	-0.0358599001	 1.4572608605	-0.2668493433	-0.422612
C	 0.0736925331	 0.0704670545	 0.0273508792	-0.108501
C	-1.3207953237	-0.5164837295	 0.0007245923	 0.018121
C	-2.0948359935	-0.6361207152	-1.3411350574	-0.07856
C	-1.3352919849	-1.6558141343	-2.2153301789	-0.044108
C	-0.9316098334	-2.6669615268	-1.1974290168	-0.046393
C	-1.5281302515	-2.0527127547	 0.0875706672	-0.111695
C	-2.8032726986	-1.9234872069	-0.8079047649	 0.013716
N	-2.2395959786	-2.8194948653	-1.9192994876	-0.182517
H	 0.8489490487	 1.8335776268	-0.2791429381	 0.287157
H	 0.7041274449	-0.4463209752	-0.7134227554	 0.087878
H	 0.527595473	-0.0941931374	 1.0186667394	 0.083909
H	-1.9533698055	-0.0121683401	 0.74101847	 0.082289
H	-2.5968871016	 0.2050348591	-1.8115463742	 0.079712
H	-0.8680096772	-1.5280045527	-3.1837449928	 0.094611
H	-0.1278089486	-3.383245811	-1.3152167915	 0.093748
H	-1.4759325285	-2.6112180112	 1.0199471545	 0.072422
H	-3.8377981141	-2.0172720206	-0.4861922517	 0.080819
79.7402	160.8069	213.0725	269.9382	385.5701	530.1487	608.8445	733.1048	755.5198	789.2126	801.3467	815.57	847.9425	855.0292	890.5569	913.506	926.1323	976.3743	993.5629	1035.57	1038.6015	1046.1745	1070.6932	1093.0872	1117.7294	1141.5239	1155.8816	1176.4826	1208.3194	1222.5486	1235.3892	1249.7841	1261.2159	1281.6865	1318.5789	1341.2282	1379.8478	1463.2523	1520.3631	2962.0883	2993.4614	3049.1638	3133.8263	3143.9167	3155.9151	3183.6313	3195.7667	3829.003
OCC1C2C3C4C1C2N34	OC[C@H]1[C@H]2[C@H]3[C@H]4[C@@H]1[C@@H]2N34	
InChI=1S/C7H9NO/c9-1-2-3-5-4(2)7-6(3)8(5)7/h2-7,9H,1H2	InChI=1S/C7H9NO/c9-1-2-3-5-4(2)7-6(3)8(5)7/h2-7,9H,1H2/t2-,3+,4-,5+,6-,7+,8?
