14
gdb 66659	2.92879	2.16501	1.49599	1.8755	63.5	-0.2363	-0.0399	0.1964	835.826	0.101254	-436.623669	-436.617167	-436.616223	-436.654306	26.17	
O	 0.0053006287	 1.3491342317	-0.075190853	-0.478952
C	 0.0323896948	-0.0227765477	-0.055465671	 0.305165
C	 1.1068813575	-0.8617664816	-0.7505529492	-0.18203
C	 0.8703740135	-2.2820999066	-0.1888595537	-0.042458
C	-0.2651863647	-2.1801900772	 0.7817560036	-0.199668
N	-0.5256258053	-2.3170031961	-0.6931622064	-0.151149
C	-0.3175414023	-0.8959589333	-1.2316810725	-0.090003
C	-0.4053679308	-0.7481654577	 1.1766529012	 0.404526
O	-0.7733843103	-0.2253815293	 2.1987916871	-0.351124
H	-0.2845947169	 1.6121853899	 0.8118527884	 0.301784
H	 1.9940346869	-0.4421106663	-1.2009306295	 0.119086
H	 1.5329315495	-3.1380564959	-0.2560257448	 0.114497
H	-0.5889340552	-2.9988736971	 1.4091415392	 0.126428
H	-0.7906635253	-0.5745938029	-2.1490634694	 0.123899
142.1293	244.9811	297.7013	347.0286	456.6145	496.9179	591.5809	622.1732	730.0914	755.9535	773.2755	778.1248	794.6373	855.8108	904.0625	912.8212	938.5367	971.5505	992.7551	1024.1675	1041.9319	1115.9789	1146.679	1159.5437	1208.718	1252.5149	1288.4154	1321.4828	1395.0934	1469.0107	1853.3141	3171.0725	3215.4045	3223.7698	3234.4067	3716.9323
OC12C3C4C(N4C13)C2=O	O[C@]12[C@H]3[C@H]4[C@H](N4[C@@H]13)C2=O	
InChI=1S/C6H5NO2/c8-5-3-2-1-4(7(2)3)6(1,5)9/h1-4,9H	InChI=1S/C6H5NO2/c8-5-3-2-1-4(7(2)3)6(1,5)9/h1-4,9H/t1-,2-,3-,4+,6+,7?/m0/s1
