20
gdb 58063	1.7427	1.62863	1.10043	3.8344	84.8	-0.2825	0.0135	0.296	1219.0406	0.16739	-365.999038	-365.988385	-365.98744	-366.034062	39.249	
C	 0.0554653331	 1.5657359524	 0.015119616	-0.417122
C	 0.0084119432	 0.0335319078	 0.0519727028	 0.03116
C	 0.8264589509	-0.5176080463	 1.2267638217	-0.424199
C	-1.4747928923	-0.5125947385	 0.0378337447	-0.111816
C	-2.2961341937	-0.0851171583	 1.2846737137	-0.416258
C	-2.1615532264	-0.0607888444	-1.1802862295	 0.338063
C	-2.7269287321	 0.3250451228	-2.167069707	-0.440017
C	-1.4238498266	-1.9899952955	 0.0020795935	 0.29419
N	-1.3720190048	-3.1443611665	-0.0035010343	-0.350862
H	 1.0897751814	 1.8959299489	-0.1199717356	 0.121836
H	-0.5390661755	 1.9689803006	-0.8080925001	 0.133831
H	-0.3056146759	 2.0049556792	 0.9507940186	 0.119672
H	 0.4548853826	-0.3400326472	-0.8767591929	 0.104028
H	 0.4742726144	-0.1245485273	 2.1860292554	 0.120385
H	 0.7970944246	-1.6095516739	 1.2703187424	 0.14557
H	 1.8721123539	-0.2148981294	 1.1170449667	 0.121878
H	-2.3741416018	 1.0027539427	 1.3218303973	 0.137819
H	-3.3036511197	-0.5011447255	 1.2283407289	 0.14716
H	-1.822591437	-0.4447545617	 2.200227753	 0.138534
H	-3.2281221084	 0.6544995201	-3.0439806551	 0.206147
66.5821	134.467	143.4317	171.9871	209.0443	219.8334	246.1663	270.2745	281.9513	344.659	360.6067	469.8598	475.1242	508.3656	567.4525	585.4599	645.9739	655.8357	659.0475	861.8149	918.8708	928.5905	942.705	970.9682	1016.3608	1120.5785	1138.3326	1174.5569	1202.4723	1215.578	1351.884	1362.4131	1402.3177	1406.0372	1425.6335	1484.7841	1487.3944	1489.5973	1504.395	1508.1614	1512.3447	2239.3613	2355.323	3038.778	3039.3585	3044.6523	3063.3393	3102.8912	3109.8478	3121.6211	3126.2879	3144.6272	3148.0794	3499.5619
CC(C)C(C)(C#C)C#N	CC(C)[C@@](C)(C#C)C#N	
InChI=1S/C8H11N/c1-5-8(4,6-9)7(2)3/h1,7H,2-4H3	InChI=1S/C8H11N/c1-5-8(4,6-9)7(2)3/h1,7H,2-4H3/t8-/m0/s1
