23
gdb 116369	2.9523	1.10984	0.86901	0.8363	87.9	-0.2329	0.02	0.2529	1406.6752	0.20685	-388.29594	-388.286611	-388.285667	-388.330236	35.356	
C	-0.0698730287	 1.3884253855	 0.1132048329	-0.24002
O	 0.0515228551	-0.0115470904	 0.0498058504	-0.244185
C	 0.6752139497	-0.5062876186	-1.1323756037	 0.137266
C	 1.269042399	-1.8626105525	-0.7446624325	-0.196185
C	 2.1601238069	-2.5412209141	-1.7925982828	-0.195939
C	 1.442665039	-2.981510864	-3.0832180567	-0.242642
C	 1.0294210235	-1.8494371491	-3.9939527282	-0.047961
C	 0.2592354766	-0.8169418418	-3.6501598343	-0.06151
C	-0.346593306	-0.5845149833	-2.2871438354	-0.262731
H	 0.9106248874	 1.8857020229	 0.0426377295	 0.102353
H	-0.717165084	 1.7997514713	-0.6762317217	 0.102703
H	-0.5164980556	 1.6298779472	 1.0813907742	 0.125075
H	 1.4902165124	 0.1762837437	-1.4259787654	 0.06094
H	 1.8469922906	-1.7076933551	 0.1729446458	 0.099277
H	 0.4399703347	-2.5312496209	-0.4754648495	 0.097484
H	 2.9949284735	-1.8792382581	-2.0556665268	 0.095692
H	 2.6049077161	-3.4286407199	-1.3264364636	 0.092861
H	 2.1002567298	-3.6602519911	-3.6359362968	 0.096129
H	 0.560276628	-3.5786110764	-2.807178945	 0.106435
H	 1.3961529279	-1.8953884563	-5.0170052923	 0.083404
H	 0.0387610376	-0.0679035525	-4.4072223048	 0.083237
H	-1.0645279305	-1.3797574982	-2.0412407989	 0.110966
H	-0.9204654529	 0.3465981416	-2.3054082645	 0.09735
74.5418	102.3929	111.4311	187.6058	243.9598	289.6047	304.6819	345.8288	425.1609	450.0531	487.9053	513.6922	662.0404	711.5338	794.0568	852.4129	876.7731	916.2127	930.7016	976.4116	999.1281	1005.9903	1034.7713	1082.2635	1086.2828	1124.2882	1140.1826	1168.8177	1182.8502	1214.5971	1239.0796	1249.6194	1272.9058	1296.104	1322.9185	1347.3403	1362.9943	1375.662	1382.2674	1407.9977	1423.0373	1474.4413	1479.074	1481.7357	1485.0717	1490.9308	1497.2909	1510.0787	1723.2533	2960.0702	2973.4168	2994.8222	3010.7478	3016.6876	3020.1017	3020.9089	3060.3284	3065.7054	3071.6613	3079.4372	3107.0217	3136.6667	3161.2992
COC1CCCC=CC1	CO[C@H]1CCCC=CC1	
InChI=1S/C8H14O/c1-9-8-6-4-2-3-5-7-8/h2,4,8H,3,5-7H2,1H3	InChI=1S/C8H14O/c1-9-8-6-4-2-3-5-7-8/h2,4,8H,3,5-7H2,1H3/t8-/m1/s1
