20
gdb 31020	2.45693	1.21217	0.86516	0.834	83.8	-0.1713	0.0624	0.2337	1377.9381	0.170075	-403.196553	-403.186526	-403.185581	-403.231686	36.648	
C	 0.247950052	 1.6021402805	-0.1901999385	-0.35814
C	-0.069509293	 0.1152070371	 0.0482798714	-0.300384
C	 0.6408888916	-0.465019104	 1.2375823371	 0.232109
C	 0.1003277376	-0.7732117008	 2.4654931204	 0.196572
C	-1.2869538539	-0.6704689114	 3.0057174322	-0.507506
N	 1.1361078652	-1.2540285963	 3.2602143128	-0.345735
C	 2.2992182375	-1.2509744522	 2.5487862165	 0.379327
O	 3.4183485596	-1.7019625687	 3.1748190788	-0.437901
C	 2.0466419341	-0.7696114895	 1.2911046405	-0.39767
H	 1.3220407649	 1.7548369007	-0.3358694262	 0.114967
H	-0.2712862888	 1.9812079548	-1.0770878072	 0.102217
H	-0.056118734	 2.20762112	 0.6695785333	 0.113362
H	-1.1526024549	-0.005971778	 0.1642976771	 0.092707
H	 0.1999477191	-0.4528224535	-0.8519724382	 0.097221
H	-1.66057756	-1.6343277486	 3.3765795708	 0.119435
H	-1.3630718705	 0.0461166664	 3.8347621317	 0.121525
H	-1.973241889	-0.3351710677	 2.2250849824	 0.135383
H	 1.0562455704	-1.5768201127	 4.2088018379	 0.257761
H	 4.1517353207	-1.6393881885	 2.5559536704	 0.305554
H	 2.7653375616	-0.6514124076	 0.4938891368	 0.079197
46.8167	111.9151	132.4385	195.6127	206.3577	228.0741	268.9532	283.5504	310.8808	373.4243	442.8175	493.3858	583.537	625.2182	662.3088	680.0177	731.2622	769.7138	795.8999	966.8605	987.5706	1041.1673	1046.8153	1059.5865	1081.7794	1161.8965	1169.1011	1190.719	1255.3503	1285.0895	1337.7692	1356.7727	1405.312	1415.4741	1457.4826	1478.2924	1482.6859	1494.9525	1497.7307	1507.486	1538.115	1593.9377	1655.8665	3004.5427	3016.3463	3030.7227	3042.5981	3055.8296	3100.0282	3107.4444	3121.5027	3235.1428	3680.0976	3850.2374
CCC1=C(C)NC(O)=C1	CCc1c(C)[nH]c(O)c1	
InChI=1S/C7H11NO/c1-3-6-4-7(9)8-5(6)2/h4,8-9H,3H2,1-2H3	InChI=1S/C7H11NO/c1-3-6-4-7(9)8-5(6)2/h4,8-9H,3H2,1-2H3
