23
gdb 58800	3.3942	1.03442	0.97581	1.7394	85.73	-0.2432	0.0828	0.3259	1380.1857	0.203785	-388.271171	-388.261268	-388.260324	-388.305781	37.544	
C	 0.0293188151	 1.4528526796	-0.2317164061	-0.394228
C	 0.0434968647	-0.0494634003	 0.0947578877	-0.088006
C	 0.9045785847	-0.3517817565	 1.329902092	-0.395807
C	-1.358817851	-0.5666897633	 0.2560320326	 0.458791
C	-2.3805425068	-0.3027278491	 1.3814753092	-0.327008
C	-3.0216800016	-1.7083707832	 1.0710217631	 0.013873
C	-4.4898569657	-1.7641249183	 0.6745713353	-0.403217
C	-1.9793311008	-1.8678360891	-0.0504747224	-0.07434
O	-2.1397241292	-0.7514356174	-0.9396136784	-0.304936
H	 1.0440120815	 1.8211598087	-0.4131243966	 0.110217
H	-0.572879482	 1.6520518583	-1.122546673	 0.131709
H	-0.3912777948	 2.0312278949	 0.5989186246	 0.114942
H	 0.4679146423	-0.5828255477	-0.765505062	 0.083745
H	 0.9202870502	-1.4229458436	 1.5548773025	 0.113598
H	 1.936329084	-0.0251207411	 1.1668753027	 0.114906
H	 0.5291503218	 0.173822642	 2.2148109364	 0.117389
H	-1.9443491024	-0.2498923144	 2.3816014944	 0.103798
H	-3.0224446754	 0.5666535105	 1.216688011	 0.104422
H	-2.8099497394	-2.4044588108	 1.8894820575	 0.072859
H	-4.6742729289	-1.1090018675	-0.1814672897	 0.132877
H	-4.7885613203	-2.7814232694	 0.3977697974	 0.11102
H	-5.1338778121	-1.4406309805	 1.4992423667	 0.111907
H	-1.561533694	-2.7749737717	-0.4758258746	 0.091489
59.0724	101.9604	162.472	207.2447	229.0036	234.4856	251.6212	288.4476	329.2796	397.0802	463.5478	479.1162	573.8043	627.7802	709.8241	801.5945	861.8614	875.6061	910.1149	916.774	930.3189	940.4646	968.4862	1005.0465	1021.166	1059.0474	1100.1936	1111.4398	1138.7719	1185.1011	1189.5087	1218.4783	1222.3723	1257.6279	1292.6004	1329.2897	1344.3612	1361.8353	1394.5094	1402.9544	1415.3094	1454.8828	1481.3337	1488.7365	1491.2813	1493.176	1502.9645	1503.509	1516.1933	3025.0901	3030.0434	3030.9692	3034.1417	3051.1756	3063.0072	3093.1014	3095.7445	3101.9478	3105.5356	3115.4684	3115.956	3120.7877	3166.5925
CC(C)C12CC(C)C1O2	CC(C)[C@]12C[C@@H](C)[C@H]1O2	
InChI=1S/C8H14O/c1-5(2)8-4-6(3)7(8)9-8/h5-7H,4H2,1-3H3	InChI=1S/C8H14O/c1-5(2)8-4-6(3)7(8)9-8/h5-7H,4H2,1-3H3/t6-,7-,8-/m1/s1
