24
gdb 113934	2.74005	0.91457	0.77893	1.5924	86.93	-0.2259	0.0763	0.3022	1604.5842	0.215458	-405.522447	-405.511688	-405.510743	-405.558523	39.772	
C	-0.4823205221	 1.5916975036	 0.3417843461	-0.372209
C	-0.2189504475	 0.096143896	 0.5003247616	-0.124274
N	-1.4412811879	-0.6544555325	 0.2055585048	-0.08833
C	-1.5810239464	-1.1640352073	-1.1554453823	-0.271708
C	-1.3863521648	-2.1081348756	-0.0208139896	-0.007922
C	-0.135886223	-2.9475851087	 0.1516857855	-0.216999
C	-0.0206038261	-3.523036539	 1.5745747822	 0.134717
C	 1.2783916009	-4.2889278334	 1.7856647376	-0.384868
O	-0.0581030532	-2.5001082364	 2.5674368261	-0.433106
H	 0.4140457693	 2.1692928307	 0.5882995994	 0.109928
H	-0.767632748	 1.8315247101	-0.6879252484	 0.115913
H	-1.2961986095	 1.9109737646	 0.9986977193	 0.123845
H	 0.6235973584	-0.1950195212	-0.1490561324	 0.082305
H	 0.0849049954	-0.1365171121	 1.5257263577	 0.112699
H	-2.5553185735	-1.0495870784	-1.6242323227	 0.111368
H	-0.7357133833	-1.0239938622	-1.8298001304	 0.105168
H	-2.2851837708	-2.6080425135	 0.3471061469	 0.084672
H	-0.1676864376	-3.7839287376	-0.5591813769	 0.099561
H	 0.762541579	-2.3671909868	-0.0806100516	 0.102705
H	-0.8679730278	-4.2135809388	 1.7288249784	 0.064089
H	 2.1364174487	-3.6228445404	 1.6489697791	 0.122122
H	 1.3201708931	-4.6939134	 2.800071088	 0.123753
H	 1.3626673553	-5.1162284808	 1.0747877623	 0.111198
H	-0.8984641585	-2.0363510504	 2.4863047594	 0.295373
62.2036	75.2563	102.9828	139.8955	191.2944	227.6101	230.5669	283.2896	326.6925	370.9376	392.643	417.4946	466.2642	493.3904	537.4685	735.0989	796.534	811.8097	846.0939	898.8311	933.283	952.1817	977.2279	1034.1328	1044.8664	1066.1716	1089.5807	1104.3994	1121.2247	1156.0139	1159.1418	1183.2103	1202.9176	1248.7499	1287.0525	1298.9231	1311.3925	1329.0563	1384.7333	1388.382	1398.9261	1408.504	1425.4153	1437.9188	1467.8314	1484.7519	1488.4881	1492.9086	1500.12	1504.6589	1521.759	2947.4261	2959.279	3025.1238	3037.6686	3042.0474	3068.6138	3074.4762	3080.642	3088.5413	3107.7383	3114.263	3118.4709	3123.1184	3167.2466	3810.2328
CCN1CC1CC(C)O	CCN1C[C@H]1C[C@@H](C)O	
InChI=1S/C7H15NO/c1-3-8-5-7(8)4-6(2)9/h6-7,9H,3-5H2,1-2H3	InChI=1S/C7H15NO/c1-3-8-5-7(8)4-6(2)9/h6-7,9H,3-5H2,1-2H3/t6-,7-,8?/m1/s1
