15
gdb 33611	5.17601	1.307	1.29087	4.5472	74.17	-0.2454	0.0087	0.2542	974.6554	0.115032	-379.587412	-379.58122	-379.580276	-379.617978	25.056	
N	 0.1251643061	-1.161968904	 0.1156009671	-0.359276
C	 0.0556387699	-0.0074080281	 0.0565378997	 0.119119
C	-0.0463865338	 1.4020453234	-0.0150923539	 0.293975
C	-0.046232786	 2.4941156488	 1.063207805	-0.140729
C	 0.9924428789	 2.5003676592	-0.0482871005	-0.084346
N	 0.339953469	 3.2727663021	-1.1472631035	-0.145926
C	-0.3633653859	 4.4053202783	-0.4298842154	-0.184292
C	-1.140479619	 3.3328097247	 0.356150371	-0.074533
C	-0.8896368401	 2.3863154326	-0.8651767956	-0.087355
H	 0.1806263305	 2.3827194854	 2.1137612244	 0.118866
H	 2.0634056525	 2.4350785048	 0.0862249775	 0.119857
H	 0.291575898	 5.0960460005	 0.1083430869	 0.113613
H	-0.9838326156	 4.9506373935	-1.1461975783	 0.119827
H	-2.0986480853	 3.4818307858	 0.8507702725	 0.087475
H	-1.5755237892	 2.1550573429	-1.6758464568	 0.103723
142.5381	154.6611	411.9644	476.4984	499.1539	545.1289	611.6374	723.8992	780.2627	817.6556	829.2157	832.8289	870.8833	892.0567	901.4204	928.6303	969.5487	1020.2579	1025.3492	1032.5839	1057.3611	1119.1926	1134.4812	1158.039	1186.6404	1209.9132	1216.671	1226.4082	1253.7478	1296.2424	1413.2025	1495.7485	2344.2371	3057.7578	3119.5613	3134.7191	3158.3854	3214.8887	3229.629
N#CC12C3C1N1CC3C21	N#C[C@@]12[C@H]3[C@@H]1N1C[C@H]3[C@H]21	
InChI=1S/C7H6N2/c8-2-7-4-3-1-9(5(3)7)6(4)7/h3-6H,1H2	InChI=1S/C7H6N2/c8-2-7-4-3-1-9(5(3)7)6(4)7/h3-6H,1H2/t3-,4-,5-,6+,7+/m1/s1
