19
gdb 110307	2.21105	1.632	1.44697	2.4389	70.5	-0.2396	0.0755	0.3151	1029.1056	0.158664	-460.111163	-460.102285	-460.101341	-460.145047	33.287	
C	-0.5682444134	 0.8473065459	 0.0047943729	-0.239713
O	 0.7618651228	 0.3643873703	 0.0002217696	-0.269118
C	 1.1083574878	-0.4689656391	 1.0831322684	 0.091043
C	 0.1810480699	-1.5947667463	 1.5409601587	-0.16863
C	-0.0089724818	-2.6606990513	 0.4966604651	 0.129125
O	-0.1818981873	-2.4262493621	-0.8651313652	-0.436826
C	 1.3054530206	-2.6374343572	 1.2028894408	-0.140205
C	 2.1930700571	-1.5126745683	 0.6704751451	 0.071486
O	 2.4689072571	-1.5591674091	-0.7249261825	-0.447374
H	-0.780544084	 1.4393415902	 0.9070163709	 0.104108
H	-0.6735119515	 1.4920138784	-0.8706583616	 0.128682
H	-1.2869701049	 0.0227408328	-0.0677953027	 0.138353
H	 1.4353345655	 0.140339327	 1.9367796131	 0.077065
H	-0.4398583973	-1.5473463063	 2.4282543078	 0.088351
H	-0.6691103927	-3.4548931076	 0.8406648878	 0.103573
H	 0.6958474673	-2.2166597832	-1.2169091277	 0.291971
H	 1.6657579709	-3.4642131362	 1.8026312325	 0.09249
H	 3.1261333259	-1.3975754672	 1.2316666084	 0.085439
H	 2.236107538	-0.6788345406	-1.0566044814	 0.300181
44.0907	123.6544	168.6927	193.9679	244.4831	260.5848	330.4608	390.6134	432.1608	537.1587	567.3317	647.3246	692.7924	771.8474	794.3875	809.0008	840.1869	937.2981	976.7075	993.7996	1010.2488	1047.7363	1057.65	1089.8693	1121.5372	1162.4594	1175.5949	1187.9425	1212.7653	1237.7769	1280.4182	1305.3613	1346.5195	1359.074	1363.7668	1390.5133	1422.6402	1475.6953	1481.6003	1488.7212	1504.0225	2994.2762	3005.0574	3048.8752	3068.8365	3122.8483	3129.1006	3174.4037	3189.1468	3703.4313	3731.1898
COC1C2C(O)C2C1O	CO[C@H]1[C@H]2[C@@H](O)[C@H]2[C@H]1O	
InChI=1S/C6H10O3/c1-9-6-3-2(4(3)7)5(6)8/h2-8H,1H3	InChI=1S/C6H10O3/c1-9-6-3-2(4(3)7)5(6)8/h2-8H,1H3/t2-,3+,4-,5+,6-/m0/s1
