19
gdb 40636	3.4375	1.21628	1.18119	2.8826	80.56	-0.2136	0.0097	0.2232	1136.8114	0.161425	-382.012243	-382.00466	-382.003715	-382.044935	29.703	
C	-0.5799791915	 1.3901462034	-0.2175243344	-0.247732
N	 0.7685675904	 1.5165937999	 0.3533530563	-0.317184
C	 0.2096744945	 0.1707599082	 0.0977397504	-0.029166
C	-0.0982894416	-0.6366813967	 1.3149597767	 0.02301
C	-0.3768852554	-2.1097054098	 1.2865866045	-0.102852
C	 0.0716130942	-2.8801080629	 0.0928340342	-0.07466
C	 1.3995546687	-2.8244819999	-0.0205373104	-0.089969
C	 1.9902791528	-2.0117934163	 1.1110048929	-0.206486
N	 0.8447577252	-1.5783873561	 1.9445235094	-0.125316
H	-1.3843545586	 1.6986324075	 0.4451481225	 0.119033
H	-0.7388750538	 1.6380673534	-1.2638281553	 0.110806
H	 1.4332492182	 1.7598379634	-0.3762274784	 0.23091
H	 0.5995941568	-0.3771950529	-0.7541279837	 0.091719
H	-0.6283312919	-0.0566909826	 2.0692092543	 0.094419
H	-1.1564634461	-2.5210573588	 1.9245222673	 0.090984
H	-0.6091266033	-3.403649426	-0.567128989	 0.101062
H	 1.9947172065	-3.2669171391	-0.8113816946	 0.099324
H	 2.6751218069	-2.6064885431	 1.7298797213	 0.113891
H	 2.5612700383	-1.1421798217	 0.7596685559	 0.118208
45.0332	154.4878	167.939	305.9389	319.1615	378.2064	530.8402	575.4171	713.9884	736.256	762.2874	777.7483	853.4608	861.8004	868.7837	904.7298	926.2456	941.4139	954.1417	966.4545	1016.1981	1031.6348	1054.9712	1087.2527	1104.8863	1120.6746	1125.146	1148.3983	1202.5895	1228.3585	1249.0337	1281.7835	1289.4738	1311.9528	1338.4012	1351.2623	1372.4501	1469.7069	1491.4771	1514.7939	1665.2708	3011.9422	3038.7504	3105.3074	3112.9198	3126.828	3158.1179	3189.6762	3191.7919	3218.9091	3503.0729
C1NC1C1C2C=CCN12	C1N[C@H]1[C@H]1[C@H]2C=CCN12	
InChI=1S/C7H10N2/c1-2-6-7(5-4-8-5)9(6)3-1/h1-2,5-8H,3-4H2	InChI=1S/C7H10N2/c1-2-6-7(5-4-8-5)9(6)3-1/h1-2,5-8H,3-4H2/t5-,6-,7+,9?/m1/s1
