14
gdb 66719	2.91947	1.69542	1.30151	5.6649	71.1	-0.2483	0.0109	0.2592	946.5322	0.100239	-399.445247	-399.438179	-399.437235	-399.476633	27.716	
O	-0.1247884894	 1.3503039788	 0.1024123676	-0.434592
C	 0.0262441991	 0.0014669816	 0.0422923624	 0.326423
C	 0.9308407254	-1.0131220926	 0.8345232686	-0.176254
C	 0.8155224574	-1.9875177898	-0.328602219	-0.082165
C	-0.195763106	-2.0332968109	 0.8035120947	-0.151011
C	-1.1088458051	-1.026608524	 0.0420044677	 0.244255
C	-2.5071627737	-0.8365847294	-0.0168989763	 0.128183
N	-3.655832535	-0.6887446713	-0.0566183958	-0.361156
C	-0.0683809035	-0.9749291976	-1.1112885387	-0.2386
H	 0.5505080138	 1.7691483212	-0.4447504054	 0.300813
H	 1.7204083816	-0.8851144666	 1.5616068831	 0.108065
H	 1.5138081193	-2.7396867499	-0.6681854532	 0.105395
H	-0.4400513363	-2.8193270249	 1.5040570357	 0.11179
H	-0.2785325277	-0.8192869347	-2.1606162515	 0.118853
119.9875	159.7851	257.672	332.071	345.2194	492.3147	523.0433	549.2733	632.9109	727.5251	741.6356	760.0339	790.4722	798.297	855.2494	899.594	919.446	936.4659	977.8678	1009.4351	1025.8841	1039.0805	1110.1508	1177.5826	1187.5278	1233.3335	1282.1361	1318.5033	1343.0449	1472.0858	2337.2587	3206.4777	3212.4165	3219.362	3226.1878	3780.6208
OC12C3C4C3C1(C#N)C24	O[C@@]12[C@@H]3[C@H]4[C@@H]3[C@]1(C#N)[C@@H]24	
InChI=1S/C7H5NO/c8-1-6-3-2-4(3)7(6,9)5(2)6/h2-5,9H	InChI=1S/C7H5NO/c8-1-6-3-2-4(3)7(6,9)5(2)6/h2-5,9H/t2-,3+,4-,5+,6-,7-/m1/s1
