17
gdb 49712	3.18118	1.48102	1.45622	2.179	66.94	-0.2534	-0.0338	0.2196	958.2673	0.137577	-458.971015	-458.963859	-458.962914	-459.002915	27.383	
O	-0.74900444	 0.9561051243	-0.4741148255	-0.241213
C	 0.1651864387	 1.0254612125	 0.3082855771	 0.135512
C	 1.3275914094	 1.9770673037	 0.2039749116	-0.133781
C	 1.318265295	 3.0186593063	-0.9362067941	-0.101921
C	 0.1133515106	 3.8859968247	-0.5141645756	-0.082978
O	 0.1743471317	 3.8580796129	 0.934242241	-0.269579
C	 1.340570307	 3.1277172838	 1.2425398158	 0.207855
O	 2.50178158	 3.856423981	 0.8995990247	-0.269761
C	 2.577728841	 3.8098389179	-0.5463380461	-0.087899
H	 0.2123884073	 0.3458952114	 1.1898450943	 0.084317
H	 2.2592763203	 1.4028792998	 0.2664754158	 0.10489
H	 1.2862087003	 2.6462327353	-1.958387251	 0.095597
H	 0.2070957212	 4.9202961545	-0.8633754685	 0.106034
H	-0.8416128685	 3.4701532677	-0.8409910039	 0.134552
H	 1.3562498867	 2.9037126534	 2.3077091919	 0.101677
H	 3.5063321544	 3.3080544885	-0.8461007747	 0.104046
H	 2.5814738549	 4.8304038022	-0.9439024628	 0.112653
80.6568	180.3207	207.8445	223.9384	387.2565	405.947	525.3389	608.7149	695.4539	764.5956	822.4463	863.1189	905.7142	916.1629	920.2733	939.314	967.4349	982.4213	1021.1803	1056.9037	1075.7808	1084.1498	1116.7867	1178.0989	1196.2933	1209.4389	1260.6537	1272.6152	1297.2817	1320.0654	1358.0213	1379.6801	1395.7477	1429.8363	1517.1821	1532.7248	1822.8562	2871.3165	3021.1664	3042.4181	3052.4959	3071.4205	3114.0346	3143.1554	3150.9186
O=CC1C2COC1OC2	O=C[C@H]1[C@H]2CO[C@@H]1OC2	
InChI=1S/C6H8O3/c7-1-5-4-2-8-6(5)9-3-4/h1,4-6H,2-3H2	InChI=1S/C6H8O3/c7-1-5-4-2-8-6(5)9-3-4/h1,4-6H,2-3H2/t4-,5-,6+/m0/s1
