20
gdb 58658	1.86879	1.48203	1.14635	2.6401	80.39	-0.2473	0.0154	0.2627	1212.9146	0.170168	-399.318682	-399.308446	-399.307502	-399.353765	37.218	
C	 0.0278492286	 1.4578571487	-0.3635968641	-0.412463
C	 0.0485769313	 0.0237029563	 0.1857468584	-0.037374
N	 0.5921950732	-0.1236216647	 1.5411465258	-0.525209
C	-1.3493359062	-0.593505339	 0.1576822385	 0.202094
N	-1.8319897442	-1.0826175656	-1.1516891134	-0.369087
C	-1.6059190194	-2.0547049844	-0.0746116513	-0.036518
C	-0.5086581219	-3.0751495547	-0.2469941368	-0.403356
C	-2.3092908124	 0.0793789539	 1.0091426547	 0.244424
N	-3.0610018302	 0.6396361591	 1.6882786962	-0.354825
H	 1.0415448965	 1.8705126115	-0.3819480372	 0.110597
H	-0.3689070325	 1.4808153487	-1.3836587139	 0.13118
H	-0.5921295805	 2.1083814541	 0.2630753085	 0.131081
H	 0.6650695305	-0.5879448217	-0.4785616569	 0.095801
H	 1.5476824291	 0.2214698147	 1.5590125532	 0.230358
H	 0.071180991	 0.4687670717	 2.1847863338	 0.237498
H	-2.8219456797	-0.8828847468	-1.2708069896	 0.248504
H	-2.4941969833	-2.4341215564	 0.4278150845	 0.106831
H	 0.3033170929	-2.6910746965	-0.8664726556	 0.13326
H	-0.1021409624	-3.3665907923	 0.7256166304	 0.141689
H	-0.9075203406	-3.9690318665	-0.7374611253	 0.125516
59.5897	119.4933	137.6119	152.9003	190.672	221.7895	255.7412	262.023	334.9073	364.3002	394.8853	480.4943	512.7169	579.9098	613.2949	668.9835	814.957	858.8291	876.2264	921.5373	954.6445	1019.6515	1026.098	1047.7321	1077.7633	1107.2737	1117.3488	1157.3488	1215.6454	1238.5446	1288.6719	1325.5878	1365.8942	1400.9756	1406.6999	1409.2632	1453.1891	1487.4283	1491.509	1496.3626	1501.6894	1661.3787	2338.592	3030.4716	3046.8522	3075.1028	3105.7271	3109.6119	3112.1006	3121.4334	3144.1385	3475.2893	3508.5148	3555.6081
CC(N)C1(NC1C)C#N	C[C@@H](N)[C@]1(N[C@H]1C)C#N	
InChI=1S/C6H11N3/c1-4(8)6(3-7)5(2)9-6/h4-5,9H,8H2,1-2H3	InChI=1S/C6H11N3/c1-4(8)6(3-7)5(2)9-6/h4-5,9H,8H2,1-2H3/t4-,5+,6-/m1/s1
