21
gdb 83004	2.58659	1.661	1.4993	1.3457	80.75	-0.2306	0.0753	0.3058	1017.7124	0.184354	-387.06329	-387.055526	-387.054581	-387.095325	31.335	
C	-0.1797073382	 1.5077983906	-0.036235832	-0.423355
C	 0.0084826148	 0.0078887281	 0.0026407537	-0.032784
C	 1.3297832035	-0.6609866713	-0.2695014225	 0.066291
O	 2.4808830956	 0.1365792789	-0.1343640304	-0.275297
C	 2.9057741967	 0.170682893	 1.229613322	 0.119089
C	 2.8588669026	 1.5688525437	 1.8989822136	-0.238102
C	 1.6103134801	 1.131846187	 2.7238883601	-0.250478
C	 1.6985757017	-0.2969129356	 2.0930098862	-0.030362
C	 0.6879945496	-0.8308157886	 1.0884010828	-0.116571
H	 0.7525572768	 2.0409026937	 0.1508059849	 0.134742
H	-0.5274060351	 1.8057422374	-1.0315703227	 0.114419
H	-0.9284914973	 1.8453572145	 0.6878773016	 0.115817
H	-0.8346596406	-0.5329012379	-0.4247348775	 0.083681
H	 1.4324309857	-1.4581549276	-1.0002869595	 0.088367
H	 3.8538770586	-0.3716289653	 1.3280609348	 0.070392
H	 3.7392610662	 1.7852310835	 2.5092947428	 0.097924
H	 2.7178503451	 2.3922247277	 1.1963800027	 0.113137
H	 1.7621368414	 1.1433447199	 3.8055507818	 0.097916
H	 0.6914636653	 1.6758615372	 2.5068889757	 0.108659
H	 1.9283377769	-1.0732361893	 2.8262591156	 0.070466
H	 0.1903196006	-1.7598951695	 1.3427904165	 0.086051
103.7028	176.8236	186.7066	232.7733	284.7372	370.2169	497.0011	585.4667	637.8593	681.461	717.1688	730.4975	754.9109	805.8701	844.5104	879.5479	893.7811	932.1933	959.6198	980.4002	1012.5526	1040.8928	1050.3973	1074.397	1095.9306	1120.1582	1127.6489	1141.7821	1157.2041	1203.428	1222.5606	1237.1745	1253.3567	1272.1823	1281.4184	1323.4377	1328.9109	1357.608	1368.5792	1412.0842	1430.3533	1469.1325	1485.6713	1498.2956	1503.7563	3023.7596	3036.6917	3067.392	3071.8598	3082.6425	3087.7638	3112.1378	3118.9083	3139.126	3142.1803	3149.0508	3166.4861
CC1C2OC3CCC3C12	C[C@H]1[C@H]2O[C@H]3CC[C@H]3[C@@H]12	
InChI=1S/C8H12O/c1-4-7-5-2-3-6(5)9-8(4)7/h4-8H,2-3H2,1H3	InChI=1S/C8H12O/c1-4-7-5-2-3-6(5)9-8(4)7/h4-8H,2-3H2,1H3/t4-,5-,6+,7-,8-/m1/s1
