17
gdb 94077	4.72503	0.99984	0.8621	1.5789	70.92	-0.2579	0.0338	0.2917	1294.7629	0.134919	-458.912474	-458.903957	-458.903013	-458.94546	32.223	
O	-0.0997986121	 1.4279392771	 0.0701510868	-0.425934
C	 0.0183935911	 0.0179119735	 0.0072546404	 0.090592
C	 0.748518455	-0.5498789731	 1.232453913	-0.110732
O	 0.6705929634	-1.9693365029	 1.2446646749	-0.245442
C	-0.6732672423	-2.3986566499	 1.2349718394	 0.029394
O	-1.3546139795	-1.9748182105	 0.0766813844	-0.248173
C	-1.3990455821	-0.5564822195	-0.0079342014	-0.088325
C	-0.7015509612	-3.8572586406	 1.2918475022	 0.290456
C	-0.7467481196	-5.0526744233	 1.3764706118	-0.386562
H	 0.7659796743	 1.8147934353	-0.0922696831	 0.291479
H	 0.53853956	-0.3102004955	-0.9038774561	 0.086883
H	 1.8127557458	-0.2959574143	 1.2271571106	 0.106218
H	 0.293705746	-0.1228320946	 2.1415258356	 0.100304
H	-1.1849846719	-1.9745085924	 2.1222324002	 0.084611
H	-1.9654654763	-0.1298629383	 0.8361136577	 0.102522
H	-1.9201613175	-0.3081458999	-0.9345301205	 0.122479
H	-0.7809426631	-6.112438191	 1.440526034	 0.200229
87.1447	143.9666	211.5805	243.5758	251.8824	323.5145	343.9058	410.1753	444.1022	460.0616	550.6791	609.6162	650.2849	656.9684	676.267	898.608	913.7703	963.0085	994.9773	1041.2526	1060.8944	1086.2978	1110.1465	1142.2156	1170.0615	1233.6861	1244.0584	1298.8264	1343.8018	1359.872	1387.9051	1397.7682	1409.8663	1444.7997	1492.8763	1504.916	2260.7597	2901.1267	2975.2815	2982.0636	3011.3613	3084.9423	3113.4433	3504.0669	3826.1034
OC1COC(OC1)C#C	O[C@H]1CO[C@@H](OC1)C#C	
InChI=1S/C6H8O3/c1-2-6-8-3-5(7)4-9-6/h1,5-7H,3-4H2	InChI=1S/C6H8O3/c1-2-6-8-3-5(7)4-9-6/h1,5-7H,3-4H2/t5-,6-
