17
gdb 13524	3.13996	1.80862	1.43909	4.3087	64.51	-0.2467	0.0165	0.2632	913.1712	0.14286	-401.026133	-401.018039	-401.017095	-401.059013	30.066	
N	 0.0404777763	 1.2751934159	 0.2724170448	-0.526986
C	 0.0520773181	-0.0451525452	-0.0501239824	 0.449717
O	 1.0990042201	-0.6317586077	-0.305725753	-0.398931
C	-1.3004252689	-0.7232533319	-0.0989608886	-0.189402
C	-1.7736820414	-0.9872504212	-1.5703960046	-0.229236
C	-1.2232753998	-2.4329710746	-1.4756720744	-0.249784
C	-1.1978397782	-2.2846288041	 0.0713411328	 0.169582
O	-0.149959832	-2.8270961978	 0.8084406882	-0.435273
H	 0.9166202883	 1.7711827689	 0.3005787928	 0.263467
H	-0.8065772623	 1.7672001349	 0.4934895242	 0.263064
H	-2.0162166838	-0.2085216828	 0.5483623123	 0.068297
H	-2.8633840564	-0.9497527659	-1.6402846723	 0.106074
H	-1.3513964626	-0.3413031555	-2.342633816	 0.110816
H	-1.8242287792	-3.2408105561	-1.8990723657	 0.095158
H	-0.2050057886	-2.4956167819	-1.8653838284	 0.121809
H	-2.1263561174	-2.6587910511	 0.514229521	 0.085647
H	 0.6513860578	-2.3859128139	 0.4834749491	 0.29598
44.1911	133.8706	189.509	219.8009	253.6489	328.3659	426.8304	482.1583	578.9329	611.0548	636.7233	694.3086	751.2517	772.7841	788.9448	898.6229	925.3532	961.4759	1016.1308	1052.1369	1091.8231	1097.4881	1161.6452	1187.0033	1231.018	1243.015	1260.8024	1268.6608	1289.4018	1350.4092	1418.2482	1469.9093	1477.7394	1496.4614	1615.4096	1749.8599	3053.4421	3062.3419	3067.9906	3073.8618	3115.4476	3133.9493	3602.1801	3681.8871	3742.1429
NC(=O)C1CCC1O	NC(=O)[C@H]1CC[C@H]1O	
InChI=1S/C5H9NO2/c6-5(8)3-1-2-4(3)7/h3-4,7H,1-2H2,(H2,6,8)	InChI=1S/C5H9NO2/c6-5(8)3-1-2-4(3)7/h3-4,7H,1-2H2,(H2,6,8)/t3-,4+/m0/s1
