21
gdb 72580	2.16471	1.54926	1.42216	2.8998	82.46	-0.2317	-0.0146	0.2171	1094.4811	0.180709	-387.099973	-387.090687	-387.089743	-387.133838	35.353	
C	-0.3692952348	 1.5055257689	 0.112827814	-0.492532
C	 0.0057872294	 0.0460777396	-0.0213663173	 0.318716
C	 1.1539811333	-0.3370086978	-0.9914917332	-0.273844
C	 1.7921834273	-1.2480790307	 0.0940136917	-0.276259
C	 0.716153401	-0.795257005	 1.1398411969	 0.17485
C	 1.1946174472	-0.2744883345	 2.4767672747	-0.495444
C	-0.4831607374	-1.7426928657	 1.1143833541	 0.380864
O	-0.8057659193	-2.6759095335	 1.7945813186	-0.313465
C	-1.1654694002	-0.9840119714	-0.038042681	-0.422393
H	 0.510833841	 2.128508303	 0.3063244821	 0.115936
H	-0.8382061725	 1.8746181832	-0.8075375107	 0.1213
H	-1.080036302	 1.6666765645	 0.9313944268	 0.11588
H	 0.8488893171	-0.8239953207	-1.9221081178	 0.098721
H	 1.7887464081	 0.5153243848	-1.2492246809	 0.101135
H	 1.8082002115	-2.3193039001	-0.1222662976	 0.113105
H	 2.8018647224	-0.9496047877	 0.3865303681	 0.10989
H	 1.9737345568	 0.4856306236	 2.3528433408	 0.114531
H	 0.3775245457	 0.1678584718	 3.0563332541	 0.120727
H	 1.6141124254	-1.0927329285	 3.0723689917	 0.136925
H	-2.1279773832	-0.5646749872	 0.2757902118	 0.128632
H	-1.3251649667	-1.5503918464	-0.9607647869	 0.122725
52.8104	152.8079	174.7182	184.9165	216.3628	261.8745	316.3338	333.4749	379.4899	495.5413	516.4286	581.0428	598.9418	677.2964	738.2844	774.7298	838.9126	855.6865	927.9607	946.3029	962.0948	983.8333	1028.3911	1047.6601	1068.9369	1122.1614	1142.6984	1185.9829	1210.687	1221.5252	1229.98	1248.3542	1269.3164	1309.1114	1327.039	1403.1895	1412.9556	1436.2567	1478.2966	1486.4567	1489.1852	1492.0505	1495.1009	1501.0255	1876.3737	3018.7202	3026.4108	3044.6347	3050.7681	3060.7151	3081.4953	3089.0404	3093.6401	3094.4281	3096.9404	3098.0735	3114.5717
CC12CCC1(C)C(=O)C2	C[C@@]12CC[C@]1(C)C(=O)C2	
InChI=1S/C8H12O/c1-7-3-4-8(7,2)6(9)5-7/h3-5H2,1-2H3	InChI=1S/C8H12O/c1-7-3-4-8(7,2)6(9)5-7/h3-5H2,1-2H3/t7-,8+/m0/s1
