20
gdb 85917	2.61408	1.30901	1.10802	3.3931	74.78	-0.2406	0.0128	0.2534	1197.2727	0.170638	-440.341439	-440.332118	-440.331174	-440.375101	35.4	
C	-0.6494756771	 1.6398034725	 0.0993396126	-0.423743
C	 0.0043380484	 0.2675497888	-0.0089425538	 0.362391
C	-1.0314018695	-0.856271776	 0.0717263764	-0.417566
C	 0.9388293905	 0.1277620316	-1.2320736412	-0.26114
C	 2.083299851	-0.7431592385	-0.7129915174	-0.111982
N	 3.3538531951	-0.5546808361	-1.3954353184	-0.516744
C	 2.0862006446	-0.4138696729	 0.7887689403	 0.401443
O	 2.9856134576	-0.5841913792	 1.5633516486	-0.351854
O	 0.8993402741	 0.1325586435	 1.1414563925	-0.248825
H	 0.1102158489	 2.4253878881	 0.1336860178	 0.125336
H	-1.2952728148	 1.819301988	-0.7660568798	 0.121874
H	-1.2590425585	 1.7100961726	 1.004629148	 0.130711
H	-1.766951292	-0.7549987947	-0.7321812779	 0.122285
H	-0.5619005799	-1.8403722559	-0.0180999625	 0.123506
H	-1.5569989109	-0.8172022665	 1.029548718	 0.133832
H	 0.4273562238	-0.2934864527	-2.0992986969	 0.118613
H	 1.3305604139	 1.1107249204	-1.5184354359	 0.105393
H	 1.8164037983	-1.8052410956	-0.7972004208	 0.114653
H	 3.6398054208	 0.4179901612	-1.3055657864	 0.22823
H	 4.0642194456	-1.0877196287	-0.8983843431	 0.243588
97.8199	106.257	214.6252	230.2451	245.1409	261.433	310.7381	325.6862	337.7103	398.5522	463.0893	537.3611	567.6766	610.1325	707.748	794.5733	823.1331	919.4827	933.5351	947.2729	958.8467	979.7468	1005.8879	1025.7654	1100.7348	1150.6342	1173.4462	1199.3677	1256.3653	1277.0696	1289.9715	1314.0275	1339.5304	1403.6338	1415.713	1421.3366	1474.7418	1484.9339	1493.1315	1497.289	1507.5147	1666.8042	1869.9226	3021.0231	3039.7195	3042.9389	3046.9347	3112.7404	3115.9549	3116.2867	3122.7685	3124.5481	3473.2938	3546.6136
CC1(C)CC(N)C(=O)O1	CC1(C)C[C@@H](N)C(=O)O1	
InChI=1S/C6H11NO2/c1-6(2)3-4(7)5(8)9-6/h4H,3,7H2,1-2H3	InChI=1S/C6H11NO2/c1-6(2)3-4(7)5(8)9-6/h4H,3,7H2,1-2H3/t4-/m1/s1
