19
gdb 73513	3.0174	1.73066	1.35325	1.3717	81.86	-0.2104	0.0103	0.2208	997.6516	0.159646	-385.836299	-385.828703	-385.827759	-385.867817	30.847	
C	-0.0478089306	 1.6520528651	-0.2595751709	-0.443044
C	-0.0272794276	 0.1524013231	 0.0238102516	 0.377002
O	 0.9731309801	-0.4411077735	-0.8059121181	-0.324974
C	 2.1161872285	-0.6720635561	 0.0443110841	-0.125327
C	 1.5267878918	-0.9005387261	 1.4311354418	-0.246694
C	 0.2874393685	-0.4174985074	 1.3989616105	 0.196308
C	-1.0875905813	-0.8963887008	 1.6827840405	-0.132508
C	-2.1732692805	 0.0696588954	 1.2955406546	-0.297234
C	-1.402149465	-0.5673621117	 0.1785194288	-0.112986
H	 0.946264174	 2.0752026725	-0.0869244681	 0.122514
H	-0.3060954962	 1.8172471429	-1.3103524313	 0.12498
H	-0.7584075159	 2.2029615756	 0.3592981244	 0.111595
H	 2.6324105686	-1.5664044193	-0.3225826053	 0.112119
H	 2.8231113964	 0.1709027719	-0.0237712106	 0.096706
H	 1.9551907164	-1.5871087627	 2.1500767432	 0.097079
H	-1.3087528839	-1.8025339043	 2.2329519508	 0.099994
H	-3.1778896571	-0.3176269104	 1.438846727	 0.120157
H	-2.0865819553	 1.1291513186	 1.5125988657	 0.118548
H	-1.8471674609	-1.2320795831	-0.5511980788	 0.105765
168.4856	178.1966	214.4188	267.6704	310.4718	384.9107	430.5878	483.1231	624.1719	658.0743	673.5178	742.5965	773.1447	823.1291	849.2711	892.2119	895.7619	931.3921	938.7325	987.618	1006.6343	1019.0618	1042.067	1052.5786	1104.6588	1134.622	1147.6534	1156.4249	1193.1016	1204.6292	1216.9348	1251.4826	1292.9191	1337.2837	1359.6693	1407.0883	1479.5612	1486.1754	1502.3306	1512.8125	1711.8117	2965.5309	3044.8663	3055.7261	3110.4207	3120.9905	3131.0727	3189.0552	3195.2217	3206.4752	3210.2015
CC12OCC=C1C1CC21	C[C@@]12OC[CH][C]1[C@H]1C[C@@H]21	
InChI=1S/C8H10O/c1-8-6(2-3-9-8)5-4-7(5)8/h2,5,7H,3-4H2,1H3	InChI=1S/C8H10O/c1-8-6(2-3-9-8)5-4-7(5)8/h2,5,7H,3-4H2,1H3/t5-,7-,8-/m1/s1
