22
gdb 26256	2.49157	1.3554	1.0216	2.0115	89.59	-0.1911	0.0487	0.2398	1275.725	0.19434	-367.257426	-367.247634	-367.24669	-367.292277	36.387	
C	-0.0605926384	 1.5776930475	 0.0392337504	-0.387215
C	 0.0441618085	 0.0468647686	-0.0274740821	-0.083685
C	-1.3526837715	-0.5951831549	 0.1157899725	-0.378501
C	 0.738963281	-0.4058801781	-1.2836000189	 0.297606
C	 0.8010160636	 0.1734003088	-2.5354952114	-0.238763
C	 1.5476009083	-0.6878450389	-3.3836965369	-0.166146
C	 1.9237969092	-1.7695746527	-2.6268125731	-0.111178
N	 1.4307501671	-1.6017117799	-1.3531081257	-0.041808
C	 1.6733638495	-2.5171723573	-0.2580905055	-0.344787
H	 0.9234258994	 2.0476222959	-0.0404798428	 0.119072
H	-0.6850741331	 1.9643544253	-0.7730023293	 0.120603
H	-0.5186342693	 1.8896506902	 0.9832635793	 0.106502
H	 0.6452832185	-0.276762054	 0.8338878522	 0.071547
H	-2.0011173429	-0.2788799909	-0.7077745163	 0.122129
H	-1.301918618	-1.6880323537	 0.0927725328	 0.111357
H	-1.8253642023	-0.2985873641	 1.0587507464	 0.106688
H	 0.3563348107	 1.1171273706	-2.8119978248	 0.087163
H	 1.7828106635	-0.5302096265	-4.4250465015	 0.088753
H	 2.5040581198	-2.644723997	-2.8742939227	 0.107714
H	 2.245525172	-2.0407739108	 0.5457552465	 0.137738
H	 0.738748647	-2.8999307681	 0.1642523839	 0.137186
H	 2.2514911372	-3.3640769398	-0.6314957728	 0.138026
54.2829	81.5536	139.6871	192.4737	204.6959	231.7638	260.9478	297.7521	362.8502	411.7376	503.6687	601.1305	618.2725	681.9174	710.1669	724.0231	775.9451	831.8129	879.5707	909.8156	929.8187	963.7166	1022.3746	1076.5526	1089.7178	1113.5097	1118.8897	1149.1685	1149.6424	1208.7304	1263.5628	1330.0022	1335.6891	1355.7752	1395.5037	1398.4897	1418.3515	1453.8706	1469.2394	1482.8212	1484.1363	1492.5594	1500.5197	1509.0089	1512.489	1529.4517	1589.2316	3000.7973	3027.7305	3031.8812	3036.433	3085.6349	3096.7966	3101.5245	3106.6302	3115.2255	3134.7114	3237.8716	3248.687	3264.4781
CC(C)C1=CC=CN1C	CC(C)c1cccn1C	
InChI=1S/C8H13N/c1-7(2)8-5-4-6-9(8)3/h4-7H,1-3H3	InChI=1S/C8H13N/c1-7(2)8-5-4-6-9(8)3/h4-7H,1-3H3
