20
gdb 40227	2.08321	2.03278	1.2568	2.4071	77.78	-0.2393	0.0654	0.3047	1056.5496	0.172577	-403.116232	-403.108279	-403.107335	-403.149105	31.383	
C	 0.2762652314	 1.498314201	-0.0489314593	-0.305885
N	 1.3299502041	 0.4732833274	 0.04931951	-0.357865
C	-0.0868309706	 0.0646877829	 0.0076515072	 0.297857
C	-0.6504410565	-0.6582357666	 1.2353402912	-0.294789
C	-1.5236526389	-1.8057966929	 0.6664281629	-0.217276
C	-0.9306139807	-2.0908367701	-0.7257711588	-0.307977
C	-0.5750773918	-0.6965698789	-1.2143780431	 0.394102
C	-1.2218458462	-0.067444757	-2.3742265886	-0.253976
O	 0.1427232926	-0.5174445201	-2.431259052	-0.300326
H	 0.1499579147	 2.1166836272	 0.8363962991	 0.115313
H	 0.1646820806	 2.0308309387	-0.9905215267	 0.111727
H	 1.7247279148	 0.3342451036	-0.8807129556	 0.240938
H	 0.1852742982	-1.0509233491	 1.8219662703	 0.120934
H	-1.2227061888	 0.0069197417	 1.8879670297	 0.102254
H	-1.5322971048	-2.6867553528	 1.3123378446	 0.104039
H	-2.5621219175	-1.4723881385	 0.5595103095	 0.102983
H	-0.0102759312	-2.6813112312	-0.6371530561	 0.11658
H	-1.6084574987	-2.6235519682	-1.3967928836	 0.102528
H	-1.9210309286	-0.6443144825	-2.9789483282	 0.115106
H	-1.3589122921	 1.0113156454	-2.4086810426	 0.113731
39.1394	160.0491	246.9887	250.4279	325.9124	371.5279	400.4421	492.6896	539.5719	563.3375	616.6182	808.8923	816.2781	845.4221	873.8067	901.6968	921.2655	933.7365	950.3274	951.3444	990.0731	1017.5846	1077.3242	1095.3225	1113.4262	1131.5407	1151.0178	1166.6024	1186.3266	1216.7013	1246.9535	1290.0203	1303.447	1314.0157	1322.4003	1338.981	1397.9695	1422.9695	1484.3725	1488.8924	1504.9106	1507.0028	1530.371	3036.2961	3043.7278	3055.8939	3082.1955	3092.5371	3098.68	3102.1807	3108.7504	3172.1746	3182.1036	3470.2809
C1NC11CCCC11CO1	C1N[C@]21CCC[C@]12CO1	
InChI=1S/C7H11NO/c1-2-6(4-8-6)7(3-1)5-9-7/h8H,1-5H2	InChI=1S/C7H11NO/c1-2-6(4-8-6)7(3-1)5-9-7/h8H,1-5H2/t6-,7+/m0/s1
