24
gdb 122070	3.14319	0.66542	0.57651	3.8406	90.65	-0.3087	0.0358	0.3445	2034.3457	0.215938	-368.450501	-368.439152	-368.438208	-368.487939	39.991	
C	 0.0868337323	 1.5860906347	 0.0127458221	-0.381743
C	 0.0330039737	 0.0561851959	-0.0051409036	-0.166304
C	-1.3977649181	-0.4927301573	 0.0258341269	-0.180023
C	-1.4510142102	-2.0231403588	 0.0040750734	-0.19607
C	-2.8806912037	-2.6104474638	 0.0190844389	-0.134706
C	-2.8828887565	-4.1499993533	-0.1278679008	-0.181612
C	-4.2808953112	-4.7641381523	-0.2209018458	-0.39856
C	-3.59251872	-2.2094357571	 1.238843135	 0.28993
N	-4.1423500844	-1.9050824262	 2.2095534361	-0.343963
H	 1.118992924	 1.9490424786	-0.0083032864	 0.113038
H	-0.4334889141	 2.0109041355	-0.8528815571	 0.114297
H	-0.389880474	 1.987564913	 0.9136259297	 0.119977
H	 0.5474513606	-0.3195165949	-0.8997505408	 0.093793
H	 0.5899927392	-0.3405436742	 0.8538172205	 0.099094
H	-1.9111285275	-0.1218153239	 0.9218243488	 0.121868
H	-1.9575812346	-0.0970851328	-0.8333016203	 0.093332
H	-0.954383896	-2.3981052863	-0.8993257386	 0.101379
H	-0.8940413359	-2.428183336	 0.8579982265	 0.112468
H	-3.438628545	-2.1836039436	-0.8262078861	 0.120531
H	-2.3074144789	-4.3897991122	-1.0293723069	 0.104729
H	-2.3365928902	-4.5837768819	 0.7176562018	 0.115848
H	-4.219152095	-5.8503348963	-0.3335886182	 0.120268
H	-4.86848777	-4.5515200226	 0.6771856085	 0.144861
H	-4.8308174344	-4.3700940142	-1.0826182937	 0.117565
54.1487	75.8181	86.5205	111.6854	135.7337	167.0024	224.6515	237.8877	252.4009	276.8984	299.3127	397.1672	455.1683	557.6039	607.6315	737.8974	753.367	789.0272	847.0753	899.1379	924.0166	961.9122	998.0312	1039.1813	1044.5558	1069.33	1085.5492	1122.2466	1149.606	1160.3317	1238.0928	1264.0248	1286.7752	1308.2248	1319.6452	1336.1651	1363.6007	1372.2591	1376.5552	1403.3019	1414.851	1417.5671	1479.4938	1486.524	1489.1681	1498.8336	1499.9972	1500.7438	1507.2873	1513.0705	2350.2519	3008.1919	3014.1781	3015.1028	3025.9303	3030.9459	3035.6107	3037.8666	3039.5332	3055.185	3071.2502	3078.4919	3098.2643	3104.0587	3106.6158	3117.0521
CCCCC(CC)C#N	CCCC[C@@H](CC)C#N	
InChI=1S/C8H15N/c1-3-5-6-8(4-2)7-9/h8H,3-6H2,1-2H3	InChI=1S/C8H15N/c1-3-5-6-8(4-2)7-9/h8H,3-6H2,1-2H3/t8-/m1/s1
