20
gdb 84724	2.50908	1.67671	1.16284	1.5837	87.32	-0.2061	-0.0221	0.184	1113.8226	0.173143	-365.996907	-365.98887	-365.987926	-366.029765	31.864	
C	-0.0774802437	 1.5194771587	 0.0643605785	-0.404051
C	 0.0253158312	-0.0134859326	-0.0328754504	-0.049247
C	 0.7672738906	-0.4119223985	-1.287845663	-0.053906
C	 1.1358388156	-1.6418326515	-1.6653437979	-0.075439
C	 0.9725418526	-2.8875230648	-0.9253943372	-0.111001
C	 0.8804742844	-3.0482170783	 0.4035539316	-0.042201
C	 0.9723273909	-2.0081897002	 1.4543086306	-0.086522
N	 2.0086529374	-0.9427412938	 1.3390392429	-0.325249
C	 0.5971335495	-0.5757493883	 1.271588849	-0.018466
H	 0.9179049654	 1.9679813866	 0.1544902413	 0.126036
H	-0.557014047	 1.9377816286	-0.8259017951	 0.114706
H	-0.6657007974	 1.8241607436	 0.9358503576	 0.107275
H	-0.9983700155	-0.4156326366	-0.1025702449	 0.09311
H	 0.9840430495	 0.4068216173	-1.9705187858	 0.083221
H	 1.5936319623	-1.7462946591	-2.647245098	 0.08378
H	 0.9535798463	-3.7890717527	-1.5346936973	 0.087144
H	 0.7538125145	-4.0597988979	 0.781432844	 0.086063
H	 0.8081274089	-2.3968469605	 2.4572429048	 0.07846
H	 2.3897636866	-0.7364964771	 2.2584594203	 0.230659
H	 0.1690317081	-0.0934908827	 2.152538199	 0.075629
37.3799	214.3431	233.5629	252.8474	312.3284	336.5363	392.7674	442.8931	518.119	620.2267	674.6205	714.87	766.1168	795.0716	814.6646	839.8228	903.241	915.9075	932.844	967.6693	991.7064	997.8868	1020.9876	1041.5607	1095.3632	1101.6728	1145.4556	1181.5591	1225.0267	1241.7646	1272.8928	1284.3545	1317.9406	1337.9018	1390.5863	1405.1232	1439.3667	1451.1092	1479.7173	1499.0094	1501.9661	1681.4457	1713.079	2970.6399	3031.4457	3079.3887	3102.1696	3105.4932	3119.7647	3128.4768	3139.0916	3155.0399	3164.2361	3502.0574
CC1C=CC=CC2NC12	C[C@H]1C=CC=C[C@H]2N[C@@H]12	
InChI=1S/C8H11N/c1-6-4-2-3-5-7-8(6)9-7/h2-9H,1H3	InChI=1S/C8H11N/c1-6-4-2-3-5-7-8(6)9-7/h2-9H,1H3/t6-,7+,8-/m0/s1
