16
gdb 21236	3.28627	1.89944	1.22226	1.551	68.07	-0.2013	0.0257	0.227	969.0459	0.131281	-379.932583	-379.924435	-379.923491	-379.965917	28.561	
C	 0.005677426	 1.4273882393	-0.0376295757	-0.249144
O	 0.0314708369	 0.0134325628	-0.0251286724	-0.271232
C	-1.1856910481	-0.5911921796	 0.0056066744	 0.213038
C	-1.3529107604	-1.9660678712	 0.0174279119	 0.252275
C	-0.3499121681	-3.0687044027	 0.0026037028	-0.5128
N	-2.7028373217	-2.1473116935	 0.0487027349	-0.245354
N	-3.411412851	-1.0073919027	 0.0577564486	-0.232498
C	-2.488963341	-0.044302258	 0.0315030927	-0.123123
H	 1.0451861493	 1.7588795285	-0.0633158746	 0.131629
H	-0.5185537685	 1.8121093077	-0.9230071749	 0.121361
H	-0.479539811	 1.8285532188	 0.8625622603	 0.121379
H	-0.4016926146	-3.6880359981	 0.9060947192	 0.132616
H	-0.4773439773	-3.7316394892	-0.861416891	 0.131788
H	 0.6523620381	-2.638481734	-0.0504343156	 0.154395
H	-3.19532957	-3.0242529145	 0.0641554405	 0.268584
H	-2.7936057887	 0.9905025462	 0.0319299589	 0.107086
49.1565	73.1809	190.7157	211.7151	242.7817	296.2779	349.3441	483.2803	511.9472	619.422	675.5783	700.7246	733.4009	845.4392	943.4399	1000.4061	1062.3032	1081.7513	1141.4902	1181.792	1194.7456	1217.5344	1272.7793	1314.9366	1386.9044	1412.9049	1442.8465	1477.8384	1486.0955	1488.3573	1495.6433	1509.3015	1546.8122	1650.5739	2997.4942	3023.7362	3052.8154	3071.0533	3130.885	3131.5283	3256.6128	3670.0148
COC1=C(C)NN=C1	COc1c(C)[nH]nc1	
InChI=1S/C5H8N2O/c1-4-5(8-2)3-6-7-4/h3H,1-2H3,(H,6,7)	InChI=1S/C5H8N2O/c1-4-5(8-2)3-6-7-4/h3H,1-2H3,(H,6,7)
