16
gdb 13608	4.61393	1.32206	1.17825	2.5381	62.96	-0.2446	0.0026	0.2472	1040.0606	0.129528	-420.895193	-420.887047	-420.886102	-420.928081	29.334	
C	 0.181834729	 1.3703505171	 0.0644300892	-0.242945
O	 0.2000513633	-0.0633381878	 0.0105478427	-0.236663
C	 0.4142977352	-0.5941482024	-1.2032076258	 0.497133
O	 0.573252288	 0.0824390617	-2.2052308997	-0.4152
C	 0.4626146588	-2.0654570659	-1.1722458917	-0.224483
C	-0.097588716	-2.8091779663	-2.3927443983	-0.32647
C	 1.3770902039	-2.733173242	-2.22051108	 0.155244
O	 2.187243752	-1.9832308101	-3.0478647125	-0.422169
H	 1.1405200103	 1.7797333369	-0.2630452484	 0.144465
H	-0.6087651514	 1.7696072398	-0.5753218261	 0.143706
H	-0.005701572	 1.6230327484	 1.1077609379	 0.136513
H	 0.3646612312	-2.5218324407	-0.1959977613	 0.108672
H	-0.6143226904	-3.7425167145	-2.1995948836	 0.12364
H	-0.5369581538	-2.1813778323	-3.1605808423	 0.137609
H	 1.8953186109	-3.6216353203	-1.8743140102	 0.116762
H	 1.7664130109	-1.1126481516	-3.1493152598	 0.304187
70.6295	118.0117	159.196	193.1107	250.1902	316.0291	386.2418	455.2301	497.2781	555.9293	697.0257	753.2118	796.7103	812.2426	879.082	937.6545	998.9667	1051.2971	1060.3545	1092.2789	1119.6124	1142.7118	1178.2438	1203.7682	1220.3763	1248.4972	1365.057	1407.2962	1454.0069	1479.425	1482.3061	1488.079	1497.366	1753.8032	3054.9423	3130.9243	3135.9889	3162.8035	3168.8033	3198.5448	3231.8362	3651.1241
COC(=O)C1CC1O	COC(=O)[C@H]1C[C@H]1O	
InChI=1S/C5H8O3/c1-8-5(7)3-2-4(3)6/h3-4,6H,2H2,1H3	InChI=1S/C5H8O3/c1-8-5(7)3-2-4(3)6/h3-4,6H,2H2,1H3/t3-,4+/m0/s1
