15
gdb 16850	3.94663	2.03844	1.54439	3.1815	68.34	-0.2225	-0.0586	0.164	810.7765	0.120624	-362.661913	-362.655521	-362.654577	-362.692479	24.87	
O	-0.0502063662	 0.1893361003	 0.7643178757	-0.330968
C	-0.0349450199	 1.2368875561	 0.1482407834	 0.351455
C	-1.3356467545	 1.8373045452	-0.4032242983	-0.266022
N	-1.363642642	 3.2694699877	-0.701886754	-0.100717
C	-0.9424034571	 4.2065635903	 0.3198511006	-0.236674
C	-0.0746891705	 3.9504737846	-0.8840850859	-0.066229
C	 1.1755096317	 3.1947740247	-0.6949773807	-0.023205
C	 1.2053689251	 1.9554548363	-0.1799572306	-0.193815
H	-1.5582652603	 1.2968874025	-1.3326659763	 0.138014
H	-2.1448515168	 1.6038182953	 0.2942368813	 0.13995
H	-1.5207061805	 5.1251866419	 0.3770537042	 0.126389
H	-0.572411868	 3.8281686388	 1.2709514819	 0.12717
H	-0.064019497	 4.6982545987	-1.6737513871	 0.105847
H	 2.0967470482	 3.6956048136	-0.9837445008	 0.114423
H	 2.1346836477	 1.425502084	 0.0001327567	 0.114381
90.4486	238.4541	348.4393	376.9974	439.2039	492.8828	540.4795	607.6457	709.8959	765.4368	787.613	819.7124	894.0909	931.1458	991.9133	1013.2017	1038.1938	1057.6036	1103.8394	1117.3443	1150.0441	1167.3655	1240.7546	1264.1896	1322.901	1335.4572	1384.137	1420.4382	1458.2461	1503.469	1668.7098	1772.9814	3028.4473	3095.6201	3098.5711	3131.2835	3157.6437	3187.5503	3195.3252
O=C1CN2CC2C=C1	O=C1CN2C[C@H]2C=C1	
InChI=1S/C6H7NO/c8-6-2-1-5-3-7(5)4-6/h1-2,5H,3-4H2	InChI=1S/C6H7NO/c8-6-2-1-5-3-7(5)4-6/h1-2,5H,3-4H2/t5-,7?/m1/s1
