16
gdb 55876	3.40482	0.89686	0.75928	2.1901	70.21	-0.2633	-0.0276	0.2358	1451.5748	0.121091	-437.89302	-437.883601	-437.882657	-437.929085	32.255	
C	-0.2872559188	 1.454250315	-0.0320801181	-0.478124
C	-0.0279183316	-0.031558226	 0.0953060983	 0.388855
O	-0.0528849132	-0.6108236879	 1.1554992524	-0.287299
C	 0.2948049502	-0.7692542795	-1.2083521887	-0.361877
C	 0.1352173839	-2.2612511219	-1.0754841402	 0.09066
O	-1.1279115291	-2.8137539154	-1.4474108262	-0.228001
C	 0.0046781287	-3.1527433663	-2.2481778082	-0.11619
C	 0.0322099576	-2.6209776531	-3.5948946465	 0.302134
N	 0.0767946728	-2.204211897	-4.6721016708	-0.326471
H	 0.4998773912	 1.9390268103	-0.6198918819	 0.141535
H	-1.2287399527	 1.6153957054	-0.5705776285	 0.153661
H	-0.3530445101	 1.9084967697	 0.9569400633	 0.149456
H	-0.3174689843	-0.3879646214	-2.0311407962	 0.147121
H	 1.3367077555	-0.5268862242	-1.4637714917	 0.147915
H	 0.5593578383	-2.6937582151	-0.1717446558	 0.132988
H	 0.3378409718	-4.1859290727	-2.1697992412	 0.143635
33.0694	56.283	90.3084	128.1426	172.6383	228.3197	328.6147	354.3844	428.2849	472.6164	569.9892	588.3075	613.814	796.6647	804.7677	828.4146	888.8168	952.9913	968.8875	1033.9516	1062.6769	1125.5559	1136.7861	1180.8754	1232.7737	1283.9026	1326.9667	1378.3764	1386.8558	1429.0532	1459.4874	1468.582	1474.9996	1817.2372	2360.0334	3022.0559	3036.8945	3092.3772	3098.2248	3133.7497	3150.1078	3156.0158
CC(=O)CC1OC1C#N	CC(=O)C[C@H]1O[C@H]1C#N	
InChI=1S/C6H7NO2/c1-4(8)2-5-6(3-7)9-5/h5-6H,2H2,1H3	InChI=1S/C6H7NO2/c1-4(8)2-5-6(3-7)9-5/h5-6H,2H2,1H3/t5-,6+/m1/s1
