17
gdb 127281	4.99782	1.2659	1.02303	2.2469	84.18	-0.2062	-0.0029	0.2033	1146.9143	0.138797	-380.89998	-380.892562	-380.891617	-380.93223	28.285	
C	 0.0065927124	 1.3932789048	 0.0855802971	-0.314138
N	-0.0234079248	-0.0484373219	-0.0112464588	 0.048159
C	-0.0626322862	-0.803887364	-1.1542706245	-0.224379
C	 0.0001938703	-2.1130250607	-0.7488710432	 0.203335
C	 0.0036636171	-3.5537792907	-1.1668204433	-0.423159
C	 0.096718348	-4.2579766386	 0.184704712	-0.079055
C	 0.1368284528	-3.3869231091	 1.2117195468	-0.183734
C	 0.0785228747	-2.0385079467	 0.6607358395	 0.350851
N	 0.0686139514	-0.7929592905	 1.1207282372	-0.389347
H	 1.0146908547	 1.7550677723	 0.3156068312	 0.141167
H	-0.3182185371	 1.821882137	-0.8645407912	 0.13429
H	-0.6709087344	 1.7180279783	 0.878214811	 0.151651
H	-0.1329379848	-0.3304774089	-2.1212081626	 0.128729
H	-0.9024024896	-3.8542022269	-1.7095680502	 0.126299
H	 0.8499358135	-3.820921006	-1.813573911	 0.125868
H	 0.126089237	-5.3369788696	 0.2706648838	 0.098093
H	 0.2018940549	-3.6352224089	 2.2626129561	 0.105369
56.7687	137.9412	254.0749	270.7124	294.751	438.8205	510.9887	567.5105	608.0765	700.6844	720.9806	771.2296	781.5766	794.5481	884.5407	923.2197	950.7562	955.118	999.3752	1063.204	1099.2749	1145.1859	1148.5397	1157.0933	1188.7666	1255.1092	1324.8093	1342.2538	1409.5388	1439.6501	1454.5525	1466.6063	1476.8576	1517.9249	1522.3377	1596.3265	1640.6857	3022.221	3038.6836	3046.6865	3109.0291	3143.5455	3208.2121	3233.2324	3252.8119
CN1C=C2CC=CC2=N1	Cn1cc2CC=Cc2n1	
InChI=1S/C7H8N2/c1-9-5-6-3-2-4-7(6)8-9/h2,4-5H,3H2,1H3	InChI=1S/C7H8N2/c1-9-5-6-3-2-4-7(6)8-9/h2,4-5H,3H2,1H3
