19
gdb 94001	1.86611	1.78814	1.51876	2.5555	70.94	-0.2497	-0.051	0.1987	1024.7162	0.158753	-460.172155	-460.163224	-460.16228	-460.205805	32.942	
C	-0.6811982851	 1.380089176	-0.1635376521	-0.416661
C	-0.0758876571	-0.0187214698	-0.0720662554	-0.030044
C	 1.0921806613	-0.3126676529	-1.0537477285	 0.086208
O	 1.8989734444	 0.7999191126	-1.3599417277	-0.438712
C	 1.8612704241	-1.4485974075	-0.3295420515	-0.109586
O	 1.3069904884	-1.5976341326	 0.9912329077	-0.272095
C	 0.5077253086	-0.4479164936	 1.2819809588	 0.013153
C	 1.4670899489	 0.5214052591	 1.9768608792	 0.151888
O	 2.1625225232	 1.3362807123	 1.4130871237	-0.26087
H	 0.0646754577	 2.1566058523	 0.0110837958	 0.13833
H	-1.1041918298	 1.5452882277	-1.1584482325	 0.126996
H	-1.4881950543	 1.5048658688	 0.5664881878	 0.10995
H	-0.8585880019	-0.758323474	-0.2830885226	 0.090199
H	 0.7011171422	-0.6565458108	-2.0152918301	 0.090578
H	 2.1935165343	 1.1822491321	-0.5179782725	 0.297692
H	 1.7636620512	-2.4207748824	-0.8226358141	 0.113476
H	 2.9247194521	-1.1872819262	-0.2762896081	 0.11455
H	-0.258007774	-0.7605989124	 2.0003013908	 0.08893
H	 1.5697479159	 0.3676396811	 3.0715277211	 0.106018
83.9602	118.5896	154.1487	180.9108	214.728	263.331	297.2335	338.7179	414.9787	532.4709	586.7863	638.7858	700.4808	731.1008	830.3737	844.411	906.1946	938.9726	988.161	1006.2673	1021.7266	1046.7997	1075.0843	1118.288	1149.3531	1173.3949	1227.3552	1242.6885	1296.6283	1308.7996	1340.227	1363.0859	1368.2594	1385.4246	1417.691	1425.5476	1478.3137	1497.3081	1500.8566	1511.5754	1802.2246	2917.8009	3024.6216	3033.251	3044.0613	3054.0894	3070.7907	3088.3149	3106.4917	3143.6863	3680.3125
CC1C(O)COC1C=O	C[C@H]1[C@@H](O)CO[C@H]1C=O	
InChI=1S/C6H10O3/c1-4-5(8)3-9-6(4)2-7/h2,4-6,8H,3H2,1H3	InChI=1S/C6H10O3/c1-4-5(8)3-9-6(4)2-7/h2,4-6,8H,3H2,1H3/t4-,5-,6-/m0/s1
