15
gdb 125024	3.22802	1.34626	0.95691	3.1762	72.54	-0.219	-0.0677	0.1513	1160.6767	0.112129	-453.955363	-453.946841	-453.945897	-453.988694	30.6	
C	-0.0028461067	 1.5199165958	-0.0495378174	-0.505268
C	-0.0851431206	 0.0502066651	 0.1462555328	 0.387095
C	-1.0693612009	-0.8758639856	-0.0655012562	-0.016672
N	-2.3779707975	-0.7141666993	-0.4965422001	-0.620086
C	-0.4593953893	-2.1015619663	 0.3474421325	 0.268396
C	-1.0435352137	-3.4416962799	 0.3154337493	 0.091106
O	-2.1668013775	-3.6618574473	-0.0924830848	-0.286346
N	 0.7801651784	-1.9182581255	 0.7715049549	-0.196398
O	 1.0171306858	-0.583016488	 0.6392403957	-0.202426
H	 0.5297534224	 1.7879176777	-0.969983293	 0.147013
H	-1.009772169	 1.9429160485	-0.1031053601	 0.142862
H	 0.5219380501	 1.9920955749	 0.7861546788	 0.15567
H	-2.5064375319	-0.0343951878	-1.2318987805	 0.249603
H	-2.8180683891	-1.6008101287	-0.7087500454	 0.273031
H	-0.3833547306	-4.2513263437	 0.6814441536	 0.112421
85.6126	111.0236	186.5766	201.8201	242.9927	294.8844	333.8177	368.8551	416.9142	502.8022	630.5016	651.3116	675.1194	725.0542	756.7383	828.4202	970.8107	1004.5757	1038.9099	1048.4195	1065.2662	1228.808	1252.9546	1328.9793	1389.1789	1415.917	1475.198	1484.6352	1492.8815	1518.3803	1641.3123	1683.5258	1777.0192	2955.355	3030.3866	3091.6874	3122.7908	3541.9897	3647.6166
CC1=C(N)C(C=O)=NO1	Cc1c(N)c(C=O)no1	
InChI=1S/C5H6N2O2/c1-3-5(6)4(2-8)7-9-3/h2H,6H2,1H3	InChI=1S/C5H6N2O2/c1-3-5(6)4(2-8)7-9-3/h2H,6H2,1H3
