17
gdb 73424	2.61902	2.3454	1.61112	0.9761	69.37	-0.2359	0.068	0.3038	849.1724	0.137686	-421.77047	-421.764038	-421.763094	-421.8008	27.316	
O	-0.0782804818	 1.3223472833	 0.0529404197	-0.499839
C	 0.0425302104	-0.0680444434	-0.0070994492	 0.385783
C	 1.0314455697	-0.7069104645	 0.9810701143	-0.130362
O	 1.3201874902	-2.0022208196	 0.4432269794	-0.279181
C	 0.5283465039	-2.1537896142	-0.7262581704	 0.120448
C	-0.9933132952	-2.1846679867	-0.526513047	-0.105124
C	-1.2162512045	-1.0730807446	-1.5288169621	-0.111372
C	-1.3232699124	-0.7591520516	-0.0605442324	-0.098332
C	 0.3145891698	-0.7702644654	-1.3864417383	-0.179956
H	 0.7956918791	 1.7080368932	-0.076566577	 0.27906
H	 1.9643305379	-0.1262242675	 1.0527806236	 0.082684
H	 0.6054237209	-0.7943838283	 1.9885341765	 0.106026
H	 0.9429118557	-2.9610082763	-1.3304428836	 0.082108
H	-1.6329476343	-3.0232961012	-0.284617574	 0.08986
H	-1.9179488845	-0.9781508481	-2.3421155308	 0.097175
H	-2.1975891153	-0.5366224209	 0.5369122088	 0.092375
H	 0.9924123201	-0.3476472242	-2.1247991676	 0.068647
213.8235	269.1728	336.3455	343.9955	405.3417	498.1961	594.4898	669.9325	692.8113	763.525	806.7834	818.3207	830.9244	861.6351	903.8671	931.3691	958.4159	971.4401	997.3968	1014.2696	1032.2681	1039.8694	1067.3033	1096.1323	1134.3587	1146.6025	1175.3883	1183.3402	1204.8867	1226.4849	1253.1957	1280.0862	1323.8441	1360.4647	1383.3396	1407.2764	1515.9366	2980.68	3040.7327	3117.1345	3142.6263	3198.4297	3206.4566	3245.4719	3792.7447
OC12COC3C4C(C14)C23	O[C@@]12CO[C@H]3[C@@H]4[C@@H]([C@H]14)[C@@H]23	
InChI=1S/C7H8O2/c8-7-1-9-6-3-2(4(3)7)5(6)7/h2-6,8H,1H2	InChI=1S/C7H8O2/c8-7-1-9-6-3-2(4(3)7)5(6)7/h2-6,8H,1H2/t2-,3+,4-,5+,6-,7-/m0/s1
