21
gdb 76346	1.80873	1.63084	1.10168	3.8322	79.02	-0.2369	-0.0163	0.2206	1208.5237	0.180353	-424.226034	-424.21603	-424.215086	-424.260878	36.837	
C	-1.0471146939	 0.5324984177	-1.4824978407	-0.420911
C	 0.0337870938	-0.3698266422	-0.9043545257	 0.01695
C	 1.4772348963	-0.3005260641	-1.4642690281	 0.070563
O	 1.7394910514	 1.0189582532	-1.9127514857	-0.422004
C	 1.9999146928	-0.5855862273	-0.0237435451	 0.007363
C	 3.2871705932	 0.0707298373	 0.4547761729	-0.440481
C	 0.6028042383	-0.1326651608	 0.5432814096	-0.138102
C	 0.5549875055	 1.2985436281	 1.0138512538	 0.151788
O	 0.1474313595	 1.6329887768	 2.1002549885	-0.265473
H	-0.7133787771	 1.569406292	-1.5546562746	 0.138249
H	-1.324274401	 0.2045055809	-2.4898715652	 0.11697
H	-1.9481018239	 0.5010755703	-0.8609359481	 0.121486
H	-0.2943083049	-1.4133434081	-0.9508959079	 0.085232
H	 1.744729087	-1.0303441405	-2.2402874818	 0.061355
H	 2.676089356	 1.0855949055	-2.1239573786	 0.289678
H	 2.0692195366	-1.6706050682	 0.1086677703	 0.084147
H	 3.2936236861	 1.1464696325	 0.2571472697	 0.124553
H	 3.4203165603	-0.068835343	 1.5323045058	 0.133011
H	 4.1587000713	-0.3695254782	-0.0436956493	 0.113246
H	 0.1829685256	-0.7556661842	 1.3360879997	 0.079686
H	 0.928683877	 2.0496690725	 0.2875290206	 0.092695
58.4626	93.5921	184.0939	203.2013	209.3316	231.5991	249.2017	273.3621	304.5653	381.1116	422.116	452.9899	513.415	569.1679	717.3894	733.0537	865.4735	870.0769	940.94	968.9552	985.2264	995.2823	1034.7882	1068.0498	1133.7622	1144.141	1155.6683	1173.7309	1184.6194	1223.7789	1262.5855	1263.9621	1305.4772	1330.8853	1346.798	1386.4249	1406.7988	1408.9341	1419.0943	1433.0689	1491.197	1495.0178	1504.471	1507.4087	1814.3103	2921.0123	3002.9566	3031.2519	3039.4338	3047.5036	3054.8992	3089.7626	3094.8315	3099.7972	3112.8196	3134.372	3819.4157
CC1C(O)C(C)C1C=O	C[C@H]1[C@@H](O)[C@@H](C)[C@H]1C=O	
InChI=1S/C7H12O2/c1-4-6(3-8)5(2)7(4)9/h3-7,9H,1-2H3	InChI=1S/C7H12O2/c1-4-6(3-8)5(2)7(4)9/h3-7,9H,1-2H3/t4-,5+,6+,7-
