19
gdb 41606	4.0227	1.27459	1.13794	1.4579	82.01	-0.2118	0.021	0.2328	1116.7086	0.160791	-385.853377	-385.845982	-385.845037	-385.885389	29.381	
C	 0.1523363472	 1.5088726186	 0.0314270612	-0.097525
O	 1.5611287091	 1.4100495302	-0.3185234	-0.285729
C	 1.5283042306	 0.0016827806	-0.0781326476	 0.03398
C	 0.0440154169	-0.0022549141	 0.2052173643	-0.211187
C	 0.592625099	-0.6929130054	-1.0375259104	 0.326542
C	 0.3551497166	-0.2413914654	-2.4844503372	-0.306315
C	 0.5412589311	-1.5251556078	-3.3436364784	-0.272946
C	 0.5721439211	-2.6406379296	-2.3247389429	-0.08342
C	 0.6063732998	-2.1798549112	-1.0742004233	-0.139247
H	 0.0326126534	 2.066674101	 0.9668624151	 0.110449
H	-0.4426884297	 1.9802165549	-0.7597158874	 0.106698
H	 2.3843642319	-0.451579416	 0.4100160221	 0.101627
H	-0.5358701831	-0.5179294469	 0.9596619629	 0.095813
H	-0.6655692215	 0.1403256952	-2.5951458725	 0.102475
H	 1.0344982305	 0.5653197286	-2.7678135617	 0.119452
H	-0.2614883211	-1.6509599561	-4.0792168345	 0.104496
H	 1.4768933762	-1.5003520403	-3.918649517	 0.109716
H	 0.5975514888	-3.688315714	-2.6027165102	 0.092935
H	 0.6603676432	-2.7871839321	-0.1769960826	 0.092185
76.3512	180.6721	188.9599	246.3782	394.2194	426.8816	498.4495	553.7731	718.088	750.6639	759.9566	806.1466	828.035	859.9463	906.2999	923.0235	947.9499	963.3847	968.1595	990.6592	995.997	1026.6966	1062.1533	1072.0538	1091.8018	1123.8141	1155.8689	1159.6898	1178.563	1239.7998	1240.5601	1270.0714	1290.9807	1321.5848	1325.6511	1376.9918	1414.3578	1483.2414	1502.4156	1515.2709	1679.8871	3014.9359	3024.4833	3039.6036	3055.8676	3072.8041	3106.2809	3168.4133	3180.275	3194.7151	3206.1878
C1OC2C1C21CCC=C1	C1O[C@H]2[C@@H]1[C@]12CCC=C1	
InChI=1S/C8H10O/c1-2-4-8(3-1)6-5-9-7(6)8/h1,3,6-7H,2,4-5H2	InChI=1S/C8H10O/c1-2-4-8(3-1)6-5-9-7(6)8/h1,3,6-7H,2,4-5H2/t6-,7+,8-/m1/s1
