16
gdb 7337	4.76803	1.12062	0.91838	2.196	64.47	-0.2485	-0.0529	0.1956	1228.4453	0.128448	-417.06506	-417.055886	-417.054942	-417.099472	31.699	
C	-0.0581473607	 1.3655949378	 0.0027414047	-0.22382
O	-0.0045493728	-0.0418936773	-0.0113998884	-0.219064
C	-1.273013262	-0.6255834043	 0.0240211782	-0.158976
C	-1.1328713725	-2.1351267683	 0.0059152402	 0.351446
O	-0.0697465452	-2.7086205465	-0.028872939	-0.303103
C	-2.4324852063	-2.9303733883	 0.0260569606	 0.266524
N	-2.2103151192	-4.2713769568	 0.1169975841	-0.535471
N	-3.5340312025	-2.2781559322	-0.0218963779	-0.514838
H	 0.9718156239	 1.7280292909	-0.0282480269	 0.131465
H	-0.6032907737	 1.7636162722	-0.8677275592	 0.106043
H	-0.5439511228	 1.7479440725	 0.9144165532	 0.106036
H	-1.8439334481	-0.3423446783	 0.9245399688	 0.12748
H	-1.9030883639	-0.324442459	-0.8289183584	 0.131321
H	-1.2558289441	-4.573786473	-0.0093302903	 0.272949
H	-2.9515264414	-4.9239499784	-0.0708641569	 0.254574
H	-4.3466562987	-2.8982556112	-0.0093793127	 0.207435
66.7005	80.0878	99.2506	146.5752	235.4942	289.2538	297.5859	346.5356	400.5828	406.5703	523.3891	549.2229	620.7654	688.9361	840.1393	871.7568	993.6981	1017.4083	1074.7861	1116.4025	1151.0454	1173.7198	1183.6672	1235.8933	1241.4523	1392.3438	1440.6788	1457.85	1486.0428	1488.2032	1512.1017	1599.7387	1721.007	1812.2182	2966.7582	2977.466	2995.2774	3015.8952	3119.2181	3446.0178	3581.6058	3718.7193
COCC(=O)C(N)=N	COCC(=O)C(=N)N	
InChI=1S/C4H8N2O2/c1-8-2-3(7)4(5)6/h2H2,1H3,(H3,5,6)	InChI=1S/C4H8N2O2/c1-8-2-3(7)4(5)6/h2H2,1H3,(H3,5,6)
