19
gdb 92304	2.18015	1.89531	1.27528	1.6153	74.47	-0.2389	-0.0245	0.2144	1042.3251	0.159701	-423.049037	-423.040977	-423.040033	-423.081771	30.934	
C	 0.0960845687	 1.5610917133	-0.1316540607	-0.409151
C	 0.0690217556	 0.057591988	 0.039025752	 0.153312
O	 0.9545396707	-0.6486236757	-0.8651107019	-0.317266
C	 1.4120304173	-1.5218783281	 0.196919598	 0.125684
C	 2.9280651919	-1.4546459922	 0.4007027983	-0.238632
C	 3.1714409569	-0.1154441346	 1.1157657369	-0.324346
C	 1.8785806115	 0.168754469	 1.8927089291	 0.413501
O	 1.772361795	 0.8956215533	 2.8469730266	-0.324745
C	 0.7383984562	-0.6327178916	 1.2624443295	-0.216762
H	 1.1026325539	 1.9680884996	-0.0051531968	 0.125984
H	-0.2570034235	 1.825696073	-1.1332485635	 0.129365
H	-0.5625605922	 2.0366765181	 0.6020403804	 0.132265
H	-0.9599409275	-0.3105737579	-0.0836308319	 0.081838
H	 1.029984739	-2.5404530881	 0.0683714071	 0.076544
H	 3.2375999291	-2.2923900582	 1.0368140319	 0.1075
H	 3.4574954258	-1.5459611276	-0.5511700199	 0.119192
H	 4.0353173431	-0.0981254214	 1.7828860317	 0.128005
H	 3.3029271883	 0.6977674116	 0.3914013651	 0.141258
H	 0.0727621201	-1.0525926506	 2.015926098	 0.096455
84.8654	127.2262	164.7379	203.8934	330.5474	358.503	423.0994	452.1559	524.2526	604.1689	674.8933	714.312	792.1352	828.305	854.5116	887.9103	905.7346	939.5825	972.3519	1014.3748	1040.6296	1072.6625	1101.4897	1145.8903	1156.6895	1163.6131	1197.9234	1209.8215	1256.7856	1279.1903	1288.1069	1329.0599	1342.3117	1351.191	1400.6132	1415.3214	1448.168	1478.5351	1479.8933	1494.9172	1839.6348	2992.5574	3037.0307	3042.6851	3044.7574	3052.0715	3102.6154	3113.6978	3119.0936	3121.7914	3124.3827
CC1OC2CCC(=O)C12	C[C@H]1O[C@H]2CCC(=O)[C@@H]12	
InChI=1S/C7H10O2/c1-4-7-5(8)2-3-6(7)9-4/h4,6-7H,2-3H2,1H3	InChI=1S/C7H10O2/c1-4-7-5(8)2-3-6(7)9-4/h4,6-7H,2-3H2,1H3/t4-,6+,7-/m1/s1
