23
gdb 101444	2.67636	1.05803	0.85705	1.1505	81.93	-0.24	0.0642	0.3042	1460.3748	0.203988	-425.41304	-425.402486	-425.401542	-425.4491	38.238	
C	-0.2094864775	 1.4956664066	 0.0368688588	-0.386582
C	-0.0591582817	-0.0251647527	-0.0434924061	-0.194064
C	 0.7674376495	-0.4833164154	-1.2474900496	 0.114599
O	 2.1006120333	 0.0291365081	-1.2239457509	-0.434996
C	 0.8086022602	-2.0059471806	-1.3530034089	 0.117762
O	-0.5076267204	-2.5888616926	-1.4873779145	-0.295
C	-0.1315059376	-3.2870995264	-2.6938206096	-0.075914
C	 1.2901612259	-2.6805140513	-2.6690360475	-0.050346
C	 1.6973253413	-1.8074676748	-3.8489762562	-0.409463
H	 0.7696286329	 1.982807798	 0.0467204353	 0.123458
H	-0.762220431	 1.881407775	-0.8267882931	 0.115395
H	-0.7514140772	 1.7932742788	 0.9394502625	 0.109841
H	 0.41906017	-0.4054468927	 0.8721758155	 0.079639
H	-1.0392670444	-0.5109212208	-0.1013568221	 0.124221
H	 0.3242731713	-0.0695762515	-2.1603704244	 0.086708
H	 2.5053586301	-0.2521125572	-0.3950431486	 0.278407
H	 1.3165503718	-2.3990599158	-0.4558600712	 0.05488
H	-0.1931456774	-4.3754331179	-2.5706215889	 0.098342
H	-0.7558356577	-2.9907635093	-3.5468555	 0.098638
H	 2.0653264107	-3.4278308815	-2.4811380081	 0.077822
H	 0.8993179356	-1.114514075	-4.1346947697	 0.118435
H	 2.5838990531	-1.2148163107	-3.6094620284	 0.138379
H	 1.9202069393	-2.4286558003	-4.7230718641	 0.10984
51.4705	80.8864	105.0572	126.7461	203.0545	223.2166	248.5541	256.5295	304.0975	352.5438	373.6464	422.5245	492.3775	546.8685	749.0339	777.4239	871.1605	882.8094	898.1832	922.8883	984.6779	1006.2025	1018.1904	1047.0416	1059.8158	1092.7293	1107.8276	1133.9148	1157.3636	1173.5366	1193.0395	1239.4816	1261.6838	1281.2138	1288.1333	1330.6317	1350.6259	1380.4492	1384.6646	1401.9811	1409.8481	1411.603	1417.5372	1483.2119	1494.8937	1495.2633	1502.5359	1508.6739	1527.7038	2950.6398	2995.1861	3008.414	3035.7544	3036.7224	3047.6607	3054.7016	3070.6286	3074.9825	3100.312	3102.6612	3117.0334	3122.9194	3789.3818
CCC(O)C1OCC1C	CC[C@@H](O)[C@H]1OC[C@H]1C	
InChI=1S/C7H14O2/c1-3-6(8)7-5(2)4-9-7/h5-8H,3-4H2,1-2H3	InChI=1S/C7H14O2/c1-3-6(8)7-5(2)4-9-7/h5-8H,3-4H2,1-2H3/t5-,6-,7+/m1/s1
