20
gdb 112780	2.40121	1.35365	0.98488	4.2116	79.94	-0.2633	0.0298	0.2931	1264.1637	0.169867	-403.149515	-403.139855	-403.138911	-403.184273	34.859	
C	 0.195657597	 1.0421358936	-0.424132914	-0.248745
O	-0.4388541764	 0.2368116838	 0.5515777993	-0.226847
C	 0.439280211	-0.4886718076	 1.344828484	 0.168616
C	-0.2370460046	-1.3529086618	 2.4193736843	-0.278644
C	 0.7928177866	-2.4804492138	 2.1384241803	 0.029821
C	 0.3310497226	-3.9272886737	 2.1611976371	-0.414392
C	 1.1272439054	-1.7920642187	 0.7602438006	-0.26093
C	 0.4284978807	-2.3544384356	-0.3816704469	 0.306549
N	-0.1223108525	-2.8065778482	-1.2929632512	-0.343483
H	 0.7467825833	 0.4366536917	-1.1564814564	 0.122931
H	-0.5904815973	 1.5918533517	-0.9450977089	 0.137915
H	 0.8903818198	 1.7593957171	 0.0389048763	 0.10661
H	 1.2255142258	 0.1586125667	 1.7632585413	 0.074861
H	-0.3007922889	-0.9494040518	 3.431413214	 0.107087
H	-1.2372156142	-1.6377903387	 2.0794300976	 0.129688
H	 1.6683654339	-2.3569046253	 2.7835322614	 0.086985
H	-0.5162911987	-4.0836274565	 1.487147423	 0.142063
H	 1.1328625212	-4.6075129429	 1.8553859478	 0.123668
H	 0.0187765203	-4.2101275585	 3.1720606934	 0.120159
H	 2.1894171849	-1.7082023716	 0.517452477	 0.11609
65.4606	101.8669	136.8799	155.6372	191.2535	217.8134	258.876	310.4646	389.881	412.8297	433.4533	535.8061	628.2199	679.6204	763.485	799.9931	886.1726	939.326	960.9695	985.9168	1032.6882	1085.2403	1111.8849	1133.321	1147.9054	1179.2636	1183.3628	1215.3839	1251.6295	1258.947	1273.3547	1280.4642	1347.8573	1361.5668	1400.6036	1418.7269	1480.6836	1487.5526	1493.3108	1493.7907	1498.3406	1504.2663	2347.911	2979.6233	2987.622	3035.0033	3044.824	3053.6029	3066.6982	3081.3892	3100.9236	3114.9513	3127.1601	3129.3289
COC1CC(C)C1C#N	CO[C@H]1C[C@@H](C)[C@H]1C#N	
InChI=1S/C7H11NO/c1-5-3-7(9-2)6(5)4-8/h5-7H,3H2,1-2H3	InChI=1S/C7H11NO/c1-5-3-7(9-2)6(5)4-8/h5-7H,3H2,1-2H3/t5-,6-,7+/m1/s1
