20
gdb 61252	3.6403	0.85352	0.77543	1.1783	82.02	-0.2298	0.0474	0.2771	1516.2218	0.167711	-403.073083	-403.062783	-403.061839	-403.108684	37.458	
C	 2.9408149619	-0.67788648	 0.2190603258	-0.312201
N	 1.5607344943	-1.1346489493	 0.3285265603	-0.089476
C	 1.245485202	-2.139035548	 1.3333877122	-0.258044
C	 0.7533159313	-0.7361347037	 1.4753632244	-0.00655
C	 1.2660977208	 0.1758771999	 2.5733237448	 0.10917
O	 1.4103129594	 1.5118941686	 2.1134985356	-0.425062
C	 0.337587319	 0.0875228913	 3.8081421346	-0.389909
C	 0.779311475	 0.9102625956	 4.9252970016	 0.308758
C	 1.1566560675	 1.5783668586	 5.8498703044	-0.431896
H	 3.528417325	-0.7709243771	 1.1454172946	 0.102067
H	 3.4400318071	-1.2708140881	-0.5535290159	 0.120374
H	 2.9488636791	 0.3722166641	-0.0835032023	 0.137508
H	 0.5751690343	-2.9386684489	 1.0286557931	 0.115869
H	 2.0435114964	-2.4497384257	 2.0090178256	 0.106377
H	-0.2872666977	-0.5324105272	 1.209064702	 0.080642
H	 2.2719826261	-0.1225077411	 2.8809393689	 0.101474
H	 0.5553847799	 1.8085472719	 1.78075997	 0.280078
H	-0.6775440016	 0.3831492362	 3.5057501507	 0.120252
H	 0.2669349049	-0.9621121157	 4.1201480933	 0.136304
H	 1.4870657053	 2.1752960585	 6.6632240261	 0.194265
58.5142	77.5344	97.9621	160.537	204.9485	233.5843	264.945	325.8135	345.0589	359.5278	393.4292	436.1392	526.5012	600.416	619.0706	639.8141	757.8633	858.2231	867.9841	912.8586	975.9826	1021.9923	1036.5768	1075.3579	1084.0667	1118.6641	1127.2619	1155.0875	1176.4275	1196.9176	1203.6859	1258.8292	1308.9037	1338.6356	1362.317	1412.525	1433.9309	1449.964	1464.4807	1483.7331	1504.67	1514.4814	2242.3649	2981.5226	3005.404	3049.5442	3061.3976	3072.6781	3078.9265	3088.7873	3120.551	3169.0179	3507.405	3793.9371
CN1CC1C(O)CC#C	CN1C[C@H]1[C@@H](O)CC#C	
InChI=1S/C7H11NO/c1-3-4-7(9)6-5-8(6)2/h1,6-7,9H,4-5H2,2H3	InChI=1S/C7H11NO/c1-3-4-7(9)6-5-8(6)2/h1,6-7,9H,4-5H2,2H3/t6-,7-,8?/m0/s1
