19
gdb 53240	3.20024	0.91072	0.82343	1.4761	86.59	-0.2382	0.0128	0.2511	1502.4673	0.157388	-385.87137	-385.861687	-385.860743	-385.907796	34.236	
C	-0.0180680263	 1.3638977727	 0.3549054376	-0.497712
C	-0.0344071698	-0.0771388479	 0.1511904472	 0.035244
C	-0.0413016651	-1.2704585267	-0.0093154905	 0.113259
C	-0.0595512305	-2.7211051579	-0.2242627969	-0.112256
O	 0.7263496816	-3.4160070596	 0.7531000085	-0.272174
C	-0.0834326918	-4.3339254421	 1.5006191301	 0.088765
C	-0.0442580618	-3.9886907911	 2.9905456748	-0.387313
C	-1.4483987644	-4.227599331	 0.8742622843	-0.09674
C	-1.4436272037	-3.3223177374	-0.0936141894	-0.088556
H	 0.6356776149	 1.6336817552	 1.1916796026	 0.152319
H	 0.3485601123	 1.8892398061	-0.5338384971	 0.148176
H	-1.0192051357	 1.7478049399	 0.5801843444	 0.147262
H	 0.3688088353	-2.9302663036	-1.2181671791	 0.105643
H	 0.3344493017	-5.3442355795	 1.360672195	 0.082144
H	-0.4684892809	-2.9955168224	 3.1625446583	 0.125589
H	-0.6138382309	-4.7219733279	 3.5718882152	 0.108347
H	 0.9889823589	-3.9938812656	 3.3485193653	 0.126359
H	-2.2932287569	-4.8184458246	 1.2057968991	 0.107037
H	-2.2715197769	-3.0062774467	-0.7139145993	 0.114608
27.1908	37.6625	96.6074	137.5764	229.3626	241.3139	298.6328	328.2448	370.1751	445.7961	500.4243	546.1203	701.7343	762.8509	797.6291	834.6262	850.0176	888.4984	953.3453	979.4764	1000.1771	1051.1391	1054.4826	1080.3351	1098.5977	1123.9869	1130.4283	1175.9252	1280.8192	1326.8069	1345.7626	1355.2244	1372.4905	1399.3722	1413.8736	1477.0323	1478.8504	1485.1227	1495.5573	1694.9564	2368.4019	2961.4495	2966.8372	3027.259	3036.6924	3087.694	3089.3451	3110.2265	3124.6017	3207.789	3236.6941
CC#CC1OC(C)C=C1	CC#C[C@H]1O[C@@H](C)C=C1	
InChI=1S/C8H10O/c1-3-4-8-6-5-7(2)9-8/h5-8H,1-2H3	InChI=1S/C8H10O/c1-3-4-8-6-5-7(2)9-8/h5-8H,1-2H3/t7-,8+/m0/s1
