18
gdb 45129	2.79721	1.65393	1.12863	3.7172	80.35	-0.2503	-0.0374	0.2129	1075.5306	0.149798	-401.941533	-401.934088	-401.933144	-401.973517	29.595	
N	-0.1224209872	 1.3242764858	 0.2834325937	-0.476871
C	 0.0198675251	 0.0799505745	 0.0655748861	 0.34672
O	-1.1349791678	-0.6352573788	-0.1363414175	-0.240532
C	-1.2948764114	-1.828068323	 0.5915779538	 0.107166
C	-2.0195480485	-2.9315798538	-0.1175328102	-0.328861
C	-0.5319898075	-3.0398059118	 0.1447107922	-0.033201
C	 0.4741549093	-2.8293743531	-0.9779021044	-0.292491
C	 1.5405466171	-1.8379309558	-0.5790295033	-0.085734
C	 1.3174689527	-0.6101129897	-0.0946707744	-0.099909
H	 0.7905562372	 1.7760726465	 0.3344785558	 0.220682
H	-1.4798701849	-1.6643749585	 1.6504913169	 0.101518
H	-2.7030791479	-3.5482272707	 0.4548106163	 0.119068
H	-2.3345193964	-2.7254824944	-1.1346504284	 0.129572
H	-0.2118887323	-3.7221062467	 0.9268129023	 0.093037
H	 0.9306472778	-3.7822234704	-1.2609894086	 0.108393
H	-0.0465566437	-2.4598472556	-1.8689172512	 0.132079
H	 2.5757879927	-2.1508667333	-0.6928476292	 0.104276
H	 2.1726480856	 0.0087677888	 0.1648998801	 0.095088
75.245	173.8431	266.0182	308.7194	352.402	387.9892	436.17	514.7556	624.2324	683.1728	712.9641	757.5005	815.6553	827.978	853.1462	890.8299	906.4241	944.3594	957.5868	1004.2677	1040.3791	1053.6303	1079.708	1094.6104	1128.0752	1132.171	1172.8553	1227.8951	1240.3425	1261.9136	1324.8741	1360.9009	1389.47	1406.1259	1423.2497	1475.3389	1487.8566	1670.3152	1715.7172	3039.3359	3083.5476	3130.3476	3139.3808	3146.2204	3151.9532	3168.9963	3228.4398	3486.727
N=C1OC2CC2CC=C1	[NH]C1=C[CH]C[C@H]2[C@@H](O1)C2	
InChI=1S/C7H9NO/c8-7-3-1-2-5-4-6(5)9-7/h1,3,5-6,8H,2,4H2	InChI=1S/C7H9NO/c8-7-3-1-2-5-4-6(5)9-7/h1,3,5-6,8H,2,4H2/t5-,6+/m1/s1
