23
gdb 103788	2.64525	0.86428	0.74085	0.2381	97.21	-0.2229	0.0565	0.2794	1687.1445	0.203051	-351.134778	-351.123584	-351.12264	-351.173031	39.973	
C	 0.1912781354	 1.5452723107	 0.207031492	-0.382185
C	-0.1912356943	 0.1105341725	-0.1780245208	-0.245462
C	 0.6409351991	-0.4667257688	-1.3128989773	 0.36229
C	 0.4592523144	 0.2004261522	-2.6638483733	-0.45987
C	 2.0030832563	-1.0157642205	-0.9848596618	-0.321261
C	 0.8770453092	-1.9798578184	-1.3439952697	-0.263473
C	 0.3235759412	-2.8653363519	-0.3603493053	 0.070112
C	-0.1477131386	-3.6238802788	 0.450022629	 0.08705
C	-0.7144888356	-4.5403889282	 1.4293669953	-0.499547
H	 1.2465945362	 1.6086500692	 0.4935519744	 0.115589
H	 0.0282285965	 2.2484235954	-0.6158734112	 0.11525
H	-0.4071680064	 1.8906825891	 1.0558135574	 0.110865
H	-0.0948851695	-0.5391778111	 0.6976034764	 0.107461
H	-1.2515957632	 0.0772458385	-0.4624276451	 0.094026
H	 0.7691685879	 1.2507244811	-2.6365665265	 0.119053
H	 1.0558705765	-0.2957640436	-3.4357160461	 0.112573
H	-0.5899691966	 0.1702806596	-2.9802094249	 0.11704
H	 2.8060170718	-0.8949147092	-1.704651717	 0.108444
H	 2.3212610857	-1.0073052678	 0.0518763971	 0.116444
H	 0.9356542427	-2.4049139178	-2.3430794151	 0.100846
H	-1.609342616	-5.0390858394	 1.039809353	 0.145069
H	 0.0011679355	-5.3206535863	 1.712953648	 0.144618
H	-1.0057872483	-4.0131009265	 2.3448677115	 0.145067
10.3685	76.9739	80.3076	100.506	203.8027	214.6765	226.641	257.6827	284.2891	336.3976	366.6372	378.4523	420.6916	516.5696	583.0543	682.4954	721.3221	786.287	854.0535	904.62	930.3651	940.4841	1009.5712	1022.7157	1052.6072	1052.8494	1065.6367	1068.9179	1083.5173	1118.8032	1132.5613	1214.9382	1250.8902	1309.9905	1329.0794	1375.1343	1407.2444	1410.3237	1416.0882	1421.5279	1477.6334	1478.4305	1480.6035	1485.1733	1496.0984	1499.793	1507.193	1510.7619	2363.1269	3019.3051	3022.2295	3026.2692	3034.5834	3072.7228	3079.9989	3082.4922	3088.3761	3098.8379	3102.0895	3106.3974	3128.3423	3131.3038	3218.2343
CCC1(C)CC1C#CC	CC[C@@]1(C)C[C@H]1C#CC	
InChI=1S/C9H14/c1-4-6-8-7-9(8,3)5-2/h8H,5,7H2,1-3H3	InChI=1S/C9H14/c1-4-6-8-7-9(8,3)5-2/h8H,5,7H2,1-3H3/t8-,9+/m1/s1
