24
gdb 109686	1.73214	1.47912	1.02923	2.1947	86.18	-0.2203	0.0765	0.2968	1335.3888	0.214848	-405.524827	-405.513674	-405.51273	-405.560937	40.869	
C	 0.3517656196	 2.1662033759	 1.0735600955	-0.384355
C	-0.5104066928	 0.9437837086	 1.3861431911	-0.115856
N	 0.3398499405	-0.1977571606	 1.7088997407	-0.14437
C	-0.2041917881	-1.5624698773	 1.730094996	-0.04847
C	-1.6549578419	-1.8830684282	 1.4368554748	-0.422388
C	 0.7830140804	-1.1585968279	 0.6793347965	 0.278844
C	 0.4016083011	-1.0245935032	-0.7826264751	-0.47315
C	 2.2498390452	-1.5112816335	 0.8851015498	-0.107436
O	 3.0820726646	-0.3999551623	 0.5943045443	-0.423641
H	 0.9914074259	 1.9807208783	 0.204544812	 0.126673
H	-0.2722971327	 3.0383447363	 0.8550352161	 0.11151
H	 0.9967268835	 2.4072937338	 1.9242107988	 0.120391
H	-1.1300332791	 1.1450882795	 2.2685349018	 0.1024
H	-1.2058704154	 0.7665340439	 0.5528625467	 0.084259
H	 0.1862397956	-2.1472588659	 2.5649221997	 0.080129
H	-2.0444353235	-1.3742724533	 0.5536406877	 0.11997
H	-1.768427421	-2.9603873618	 1.2753915348	 0.12338
H	-2.2895560116	-1.6120616737	 2.287953504	 0.124511
H	-0.5862901059	-0.5916255929	-0.9439181001	 0.116956
H	 1.1386166909	-0.3987690305	-1.2952441287	 0.138611
H	 0.4115969357	-2.0096030488	-1.2623888925	 0.120273
H	 2.4022524573	-1.8604758444	 1.9166811148	 0.085257
H	 2.5578663104	-2.3137509088	 0.2055510594	 0.09988
H	 2.7829832818	 0.3011788765	 1.1865874821	 0.286623
70.7964	75.4345	116.475	159.1645	176.7269	200.7493	213.5448	252.7334	285.9599	305.5139	354.3658	394.6491	463.485	482.5789	542.9827	567.8533	694.7722	773.8033	804.8923	814.9417	933.7327	951.0982	966.8094	1003.1688	1053.0751	1062.0099	1075.0515	1104.5859	1135.6119	1156.8779	1163.9441	1188.6665	1211.5206	1288.2364	1306.8657	1348.966	1378.1029	1385.5718	1404.0124	1411.761	1413.3763	1426.7569	1440.3103	1481.9353	1488.503	1492.0081	1496.5794	1499.1732	1502.9947	1511.2316	1519.6489	2989.6858	2994.6298	3036.2666	3037.3173	3041.1777	3044.0922	3069.2383	3078.4326	3092.5365	3099.7548	3109.4384	3111.4222	3129.9647	3139.5459	3780.2227
CCN1C(C)C1(C)CO	CCN1[C@@H](C)[C@]1(C)CO	
InChI=1S/C7H15NO/c1-4-8-6(2)7(8,3)5-9/h6,9H,4-5H2,1-3H3	InChI=1S/C7H15NO/c1-4-8-6(2)7(8,3)5-9/h6,9H,4-5H2,1-3H3/t6-,7-,8?/m0/s1
