21
gdb 87983	2.27451	1.47485	1.27909	2.8172	78.54	-0.2363	0.0697	0.306	1128.0545	0.179737	-424.194149	-424.184478	-424.183534	-424.228219	36.842	
C	-0.2953975804	 1.5076202902	 0.1839728472	-0.428095
C	 0.0036001493	 0.0265761795	 0.0055893564	 0.357294
C	-1.1605005395	-0.7266798423	-0.6266903393	-0.414216
O	 1.2149077605	-0.1586695965	-0.7993701136	-0.331794
C	 1.8831477891	-0.8848931544	 0.2484616525	-0.143099
C	 0.7058205848	-0.6737576386	 1.1869972119	 0.244171
C	 0.7513478549	-0.2649810139	 2.6356129765	-0.397399
C	 0.1562327976	-1.5924175266	 2.2233860932	 0.024869
O	-1.2333293533	-1.7561869965	 2.2545365348	-0.419428
H	 0.5622103306	 2.0303473938	 0.6152156909	 0.116995
H	-0.5234556318	 1.9606744573	-0.786300078	 0.121752
H	-1.1611221122	 1.6534298152	 0.8387750002	 0.114838
H	-1.3786527737	-0.3003806796	-1.6114082049	 0.111648
H	-0.9136933854	-1.7834241814	-0.7554947832	 0.11624
H	-2.0539283599	-0.6608811181	-0.0016690721	 0.126431
H	 2.0871585268	-1.9276371712	-0.0334824923	 0.097164
H	 2.8260614658	-0.4073947699	 0.5468016318	 0.097597
H	 1.7114762256	-0.2518165515	 3.1433635511	 0.111564
H	 0.0518481407	 0.4999800685	 2.9588436629	 0.117516
H	 0.7285148432	-2.4957178319	 2.4429172	 0.086372
H	-1.5009060426	-1.8371614621	 3.1761333841	 0.289579
57.022	152.5444	189.3371	214.5393	223.48	245.8404	290.0119	325.3377	354.8162	387.4455	427.5402	447.9957	528.4348	615.1686	668.1269	808.267	855.4679	875.4862	905.6274	931.7052	963.6677	995.1461	1007.6133	1026.679	1033.1467	1096.0285	1103.2125	1154.5824	1162.4498	1166.7795	1198.4424	1235.234	1268.4004	1295.6651	1325.7094	1372.5542	1396.2824	1411.5409	1427.5349	1472.0107	1476.7417	1492.6584	1495.9182	1505.1256	1525.7955	2991.4932	3030.5573	3034.4928	3044.3933	3080.905	3104.1287	3116.7278	3117.0483	3119.3449	3134.3028	3206.5319	3802.3244
CC1(C)OCC11CC1O	CC1(C)OC[C@]21C[C@H]2O	
InChI=1S/C7H12O2/c1-6(2)7(4-9-6)3-5(7)8/h5,8H,3-4H2,1-2H3	InChI=1S/C7H12O2/c1-6(2)7(4-9-6)3-5(7)8/h5,8H,3-4H2,1-2H3/t5-,7-/m1/s1
