13
gdb 130501	4.16108	1.66091	1.18708	2.5081	71.88	-0.2611	-0.0646	0.1964	933.1928	0.093384	-415.646416	-415.640713	-415.639769	-415.676463	22.748	
O	-0.0199039802	 1.3180040861	 0.0093095997	-0.240393
N	 1.2809743756	 1.8375858046	-0.0006670863	-0.107564
C	 2.1026028234	 0.8262619669	-0.0137572361	-0.081714
C	 1.4056420609	-0.4261329472	-0.0134472972	 0.180487
C	 0.0678558153	-0.0291759224	 0.0015500869	 0.345198
C	-0.9666308466	-0.9640123854	 0.0067804798	-0.088554
N	-0.6815966323	-2.2600976805	-0.0026385554	-0.267105
C	 0.6090152585	-2.6536783228	-0.0171678372	 0.014949
C	 1.6964295516	-1.7932434812	-0.0232810356	-0.273164
H	 3.1662980328	 1.0176567645	-0.0230759807	 0.149289
H	-2.01093604	-0.6666779754	 0.0184186787	 0.134348
H	 0.767260779	-3.7281108556	-0.0242069054	 0.118373
H	 2.7115647519	-2.1722950615	-0.0350545711	 0.115851
216.9254	253.6309	401.5796	435.1939	550.6329	607.5165	634.8248	635.8779	795.8007	800.5918	845.1518	898.0406	900.6246	905.1776	946.6642	958.4177	980.84	1057.0347	1191.5482	1215.2254	1250.6246	1283.5286	1328.5317	1352.4994	1441.0621	1497.6887	1540.5203	1625.7546	1638.8887	3171.7001	3176.9411	3204.7358	3247.1134
O1N=CC2=C1C=NC=C2	o1ncc2c1cncc2	
InChI=1S/C6H4N2O/c1-2-7-4-6-5(1)3-8-9-6/h1-4H	InChI=1S/C6H4N2O/c1-2-7-4-6-5(1)3-8-9-6/h1-4H
