13
gdb 20000	3.56949	1.84748	1.40554	5.0492	58.79	-0.2869	-0.0063	0.2805	854.1986	0.094596	-398.550938	-398.543797	-398.542853	-398.582871	25.129	
N	 0.0865031486	-1.1507208382	 0.3905840443	-0.32396
C	 0.1459212642	-0.0059368035	 0.247038288	 0.320027
C	 0.0981947451	 1.4212986108	 0.0141748805	-0.103266
O	 0.6661853725	 2.2824851359	 1.0041113528	-0.222097
C	 1.2979992875	 2.2434797299	-0.2666742945	 0.041484
C	 2.6905550223	 1.6962290656	-0.3276988704	 0.031849
C	 3.6013588294	 1.8511945313	 0.817148355	-0.168568
O	 2.9911961844	 0.5955836553	 0.512097274	-0.209589
H	-0.8583356461	 1.7585410975	-0.382925797	 0.143898
H	 1.1387160922	 3.1300551964	-0.884063853	 0.114269
H	 3.1068026107	 1.6447761776	-1.3346691491	 0.111413
H	 4.6743250189	 1.904434795	 0.6444631993	 0.126061
H	 3.2321592304	 2.3337320463	 1.7189399602	 0.13848
75.181	121.6658	197.0823	245.6743	263.5209	430.8361	549.96	582.4768	683.9109	745.9321	841.2453	868.7281	916.9416	960.4877	980.9194	1048.1848	1092.4296	1108.4315	1145.5967	1165.8329	1167.9823	1271.3674	1288.0902	1377.3998	1424.3252	1459.067	1519.3142	2365.3227	3092.0791	3098.8905	3110.9971	3126.8036	3196.2564
N#CC1OC1C1CO1	N#C[C@H]1O[C@H]1[C@H]1CO1	
InChI=1S/C5H5NO2/c6-1-3-5(8-3)4-2-7-4/h3-5H,2H2	InChI=1S/C5H5NO2/c6-1-3-5(8-3)4-2-7-4/h3-5H,2H2/t3-,4-,5-/m1/s1
