16
gdb 33397	2.25776	1.34388	0.88938	3.1117	74.21	-0.2641	0.0037	0.2678	1250.4827	0.122997	-400.693766	-400.684869	-400.683925	-400.728388	31.33	
C	-0.1381820761	-1.1486245003	 0.1496884938	-0.410593
C	-0.0408948646	 0.0455752626	 0.0806246557	 0.320478
C	 0.0379411125	 1.502300404	-0.0337275603	-0.35525
C	 1.4344317621	 1.968708675	 0.0031098401	 0.292838
N	 2.5189562517	 2.3656432987	 0.0099901532	-0.316978
C	-0.6615599349	 2.0142257033	-1.3156266428	-0.023917
C	-2.1996992091	 1.901267361	-1.2802775682	-0.092576
O	-2.3380144433	 3.3260252071	-1.1045851799	-0.269434
C	-0.9299177364	 3.5341129457	-1.3388325037	-0.092479
H	-0.2126722463	-2.206140986	 0.2208700241	 0.213385
H	-0.4736464954	 1.9543876592	 0.8282399841	 0.165152
H	-0.1664814415	 1.5960473756	-2.1921678782	 0.111334
H	-2.6489572456	 1.5558077346	-2.2195260969	 0.110458
H	-2.6300908954	 1.3322108015	-0.4482063997	 0.116254
H	-0.4577001848	 4.1289609505	-0.5481610207	 0.119026
H	-0.738513623	 4.0123353676	-2.3070910906	 0.112304
66.8055	71.2541	123.31	127.6492	182.3644	324.9694	343.212	367.1502	493.43	524.5688	576.5734	651.4639	675.0714	821.9591	843.6377	879.3159	930.0309	975.4889	1003.5544	1037.0331	1075.7887	1084.1253	1135.4753	1157.541	1170.209	1249.5041	1260.4357	1309.2445	1319.2976	1359.3043	1384.3142	1512.1774	1537.3775	2248.4818	2365.0338	3012.1585	3015.7514	3025.8714	3066.0436	3066.5359	3114.5675	3501.3354
C#CC(C#N)C1COC1	C#C[C@@H](C#N)C1COC1	
InChI=1S/C7H7NO/c1-2-6(3-8)7-4-9-5-7/h1,6-7H,4-5H2	InChI=1S/C7H7NO/c1-2-6(3-8)7-4-9-5-7/h1,6-7H,4-5H2/t6-/m0/s1
