22
gdb 63471	2.74956	1.26228	1.10555	2.7969	83.42	-0.2186	0.0774	0.296	1230.8338	0.191845	-404.303738	-404.293998	-404.293053	-404.337736	37.793	
C	 2.0588182076	 0.8642638862	-0.6484056919	-0.442648
C	 1.2189777829	-0.3149322814	-0.2260359324	 0.410841
O	 0.2834903724	-0.6303424663	-1.2133318538	-0.47792
C	 1.8136793636	-1.4590095408	 0.5714647804	-0.39001
C	 0.7798022309	-0.5447266348	 1.2160862467	 0.270871
C	 1.2031578682	 0.384458082	 2.3355839301	-0.484488
N	-0.546622965	-1.1405909708	 1.2639252615	-0.124428
C	-0.9688495778	-1.9220196571	 2.4190082723	-0.227028
C	-1.5975043158	-0.6037804586	 2.1201872273	-0.228969
H	 2.8494876433	 1.0866985572	 0.0713604626	 0.108404
H	 2.5311560238	 0.6461850003	-1.611816645	 0.128993
H	 1.4370642215	 1.7564863167	-0.7757827568	 0.119298
H	-0.4483816409	-1.0529628096	-0.7329394857	 0.279183
H	 1.4909418077	-2.4591270134	 0.302670761	 0.111558
H	 2.8375259176	-1.3873224842	 0.9254729849	 0.102791
H	 2.252093652	 0.6671801705	 2.2277435359	 0.12475
H	 0.6153974444	 1.3087279234	 2.3498637744	 0.123629
H	 1.104718641	-0.0962406131	 3.3167760101	 0.116495
H	-1.4898850186	-2.8490653934	 2.1967423835	 0.120228
H	-0.3014493973	-1.970275352	 3.2766042732	 0.117751
H	-1.3599065149	 0.220277071	 2.7867616502	 0.119475
H	-2.5854461866	-0.5513910416	 1.6714243013	 0.121224
72.0337	149.0766	170.8675	191.5399	211.0391	275.2073	296.9441	329.9892	391.0875	408.3387	425.0325	486.9261	557.6317	577.4302	632.9008	729.225	800.2658	826.433	895.2486	905.1551	917.8635	954.1385	981.3583	996.8722	1033.608	1038.6509	1102.9671	1114.4937	1117.0232	1124.3427	1163.6353	1167.1387	1179.8928	1222.5407	1261.9816	1335.6722	1345.6959	1402.69	1412.9245	1444.9839	1474.5972	1479.4344	1488.6633	1490.9095	1501.6447	1514.8264	1523.2799	3024.2932	3039.3602	3080.5714	3100.5884	3104.5592	3114.916	3120.2098	3122.4412	3131.0203	3184.9983	3201.7355	3215.9324	3645.3927
CC1(O)CC1(C)N1CC1	C[C@@]1(O)C[C@]1(C)N1CC1	
InChI=1S/C7H13NO/c1-6(8-3-4-8)5-7(6,2)9/h9H,3-5H2,1-2H3	InChI=1S/C7H13NO/c1-6(8-3-4-8)5-7(6,2)9/h9H,3-5H2,1-2H3/t6-,7+/m0/s1
