23
gdb 120065	5.29869	0.80447	0.79763	0.0905	90.81	-0.2797	0.0905	0.3702	1579.1213	0.206368	-351.08565	-351.077094	-351.076149	-351.119296	33.403	
C	-0.0588120389	 1.5966215561	-0.0835300503	-0.379461
C	 0.0955930647	 0.0737075258	-0.0560691765	-0.157602
C	 0.5571966012	-0.4630084407	 1.3055455504	-0.206781
C	 0.6962091671	-1.9795896972	 1.3361589128	 0.000855
C	 1.9267237347	-2.6582207716	 0.6862583178	-0.040242
C	 2.8580691299	-2.3546870431	 1.9148623754	-0.039879
C	 3.3061968661	-3.8245430634	 2.0306786431	-0.266979
C	 1.8209570832	-3.9048985423	 1.6312290752	-0.041916
C	 1.4362286308	-2.6632581523	 2.5079045998	-0.060727
H	 0.8900691437	 2.0949686048	 0.1448194558	 0.112509
H	-0.3915831355	 1.948939709	-1.0650511423	 0.109276
H	-0.7928277008	 1.9328833702	 0.6574579938	 0.112395
H	-0.8600062068	-0.3966922857	-0.3235449478	 0.092895
H	 0.8111434737	-0.2366361069	-0.8285241689	 0.096126
H	 1.51345273	 0.004948491	 1.5747864735	 0.088936
H	-0.1610921022	-0.1511574142	 2.0772039725	 0.088304
H	-0.2589238436	-2.4577486829	 1.0764212721	 0.054898
H	 2.236947795	-2.6787649226	-0.3607095317	 0.063557
H	 3.4459489135	-1.450564419	 2.0766679203	 0.068583
H	 4.0356392839	-4.1772284191	 1.2938047096	 0.088583
H	 3.5689233891	-4.1829880775	 3.0316448633	 0.088633
H	 1.1941140063	-4.7819490778	 1.4599178832	 0.065348
H	 1.1765226449	-2.6847931306	 3.5687549489	 0.06269
73.0476	87.5864	123.8917	233.7184	255.0162	307.4914	334.116	441.3387	556.6298	727.5069	732.5264	766.4653	834.1798	848.1231	851.5029	873.5211	891.2424	912.4164	920.592	933.9907	964.5259	1004.8648	1027.2923	1040.7907	1051.3703	1071.5497	1114.2966	1118.4358	1137.3538	1147.1439	1151.3305	1158.4813	1190.4597	1191.2011	1230.0536	1242.2077	1264.5336	1282.8567	1309.0722	1317.3277	1330.5647	1383.9873	1410.1482	1417.9081	1481.5896	1493.3708	1499.5912	1509.1039	1509.8588	3002.0735	3004.1353	3016.3728	3027.6966	3032.2485	3034.143	3056.3871	3082.9422	3084.6211	3088.1518	3094.3392	3097.1213	3099.3719	3109.2457
CCCC1C2C3CC2C13	CCC[C@H]1[C@H]2[C@@H]3C[C@H]2[C@H]13	
InChI=1S/C9H14/c1-2-3-5-8-6-4-7(8)9(5)6/h5-9H,2-4H2,1H3	InChI=1S/C9H14/c1-2-3-5-8-6-4-7(8)9(5)6/h5-9H,2-4H2,1H3/t5-,6-,7+,8-,9+
