16
gdb 11368	5.81813	1.1887	1.00537	3.3824	67.23	-0.2392	-0.0142	0.225	1109.8625	0.129428	-383.767375	-383.75942	-383.758476	-383.80027	28.68	
O	-0.0026030307	 1.4193192356	 0.0068837784	-0.413016
C	-0.0099597202	 0.0049934105	 0.0021657458	-0.170202
C	-1.4177569889	-0.4945659555	 0.0122094029	 0.300614
C	-2.5268940864	 0.250128914	 0.0232844185	-0.158376
C	-3.7837753082	-0.5743778884	 0.0312048976	-0.371657
C	-3.2609529567	-2.0200377788	 0.0230547249	 0.399646
O	-3.9310827826	-3.0179213437	 0.0262754051	-0.30207
C	-1.7224417617	-1.9708757326	 0.010586659	-0.425486
H	 0.9116959778	 1.7153201922	-0.000351577	 0.291977
H	 0.5091398729	-0.3994479689	-0.88576504	 0.097081
H	 0.5238831294	-0.4054333967	 0.8785302085	 0.097066
H	-2.5238366548	 1.3320953895	 0.02634731	 0.115883
H	-4.4176341828	-0.4124653018	 0.9131949677	 0.135931
H	-4.431671083	-0.4077676015	-0.8396499098	 0.135918
H	-1.3393507482	-2.5021124864	-0.8712907222	 0.133338
H	-1.3248890058	-2.5070425076	 0.8830227506	 0.133353
54.4486	102.6231	190.9239	211.889	241.742	372.4392	422.1499	476.533	497.2773	616.9851	679.4777	784.8098	810.7505	833.2925	890.9148	996.6009	999.9291	1045.1192	1072.7075	1121.673	1129.1625	1174.9294	1183.4204	1215.5786	1253.6603	1280.3391	1288.3801	1340.8659	1442.9173	1447.4039	1469.1521	1505.78	1718.8608	1854.7671	2935.8085	2947.2628	3017.7004	3023.0461	3045.0908	3048.0278	3225.6297	3842.3894
OCC1=CCC(=O)C1	OCC1=CCC(=O)C1	
InChI=1S/C6H8O2/c7-4-5-1-2-6(8)3-5/h1,7H,2-4H2	InChI=1S/C6H8O2/c7-4-5-1-2-6(8)3-5/h1,7H,2-4H2
