15
gdb 69298	3.16285	1.33718	1.0588	2.8842	73.23	-0.2388	-0.0346	0.2042	1123.2332	0.109108	-420.568164	-420.55956	-420.558616	-420.60151	31.482	
C	-0.0769514175	 1.5840375314	 0.09785764	-0.51295
C	 0.146714677	 0.1144219421	-0.0125178607	 0.277006
O	-0.7724442313	-0.7963634543	 0.6431708548	-0.25999
C	 0.6082111032	-0.9387477692	 0.9317679477	-0.047159
C	 1.2016030877	-1.8364520428	-0.174896198	-0.349879
C	 0.717824811	-3.1903983526	-0.3038831127	 0.339193
C	 0.3135802978	-4.3159258847	-0.4225404827	-0.441443
C	 0.6978561847	-0.7095380632	-1.1745355803	 0.384514
O	 0.8510878163	-0.5211701996	-2.3394303729	-0.28509
H	 0.8157689327	 2.1324617236	-0.2169716319	 0.14077
H	-0.9068251541	 1.8926159081	-0.545441291	 0.152251
H	-0.3186812286	 1.8568548536	 1.1281220035	 0.142845
H	 0.9386113826	-0.8318274495	 1.9578876186	 0.125857
H	 2.2990187812	-1.7995333352	-0.1853379185	 0.132306
H	-0.0519277827	-5.3073121577	-0.5279957059	 0.201768
83.6289	120.1973	148.2456	180.1085	245.0216	284.3315	368.8014	395.4915	516.465	561.093	613.9629	620.756	641.0808	714.9799	754.3108	808.5259	849.1692	907.8607	940.1755	998.2724	1033.0525	1075.8062	1097.8975	1141.7743	1231.8919	1254.2146	1313.2112	1400.8694	1451.6731	1478.4889	1488.8945	1908.7694	2239.8397	3033.1163	3045.5741	3113.3179	3129.2794	3199.6309	3503.0023
CC12OC1C(C#C)C2=O	C[C@]12O[C@H]1[C@@H](C#C)C2=O	
InChI=1S/C7H6O2/c1-3-4-5(8)7(2)6(4)9-7/h1,4,6H,2H3	InChI=1S/C7H6O2/c1-3-4-5(8)7(2)6(4)9-7/h1,4,6H,2H3/t4-,6-,7+/m0/s1
