22
gdb 56137	3.1046	0.85509	0.79193	2.5013	80.37	-0.2604	0.0336	0.294	1571.662	0.19018	-441.505412	-441.494101	-441.493156	-441.54233	40.596	
C	-0.036907342	 1.4278641326	-0.1072492258	-0.462595
C	-0.0370998553	-0.0667817982	 0.0920271568	 0.402148
N	-0.0581193748	-0.7246601907	 1.1773342247	-0.515846
O	-0.010339603	-0.6918710874	-1.1036400112	-0.246292
C	-0.0068816024	-2.1232700581	-1.0867864733	-0.053263
C	 0.0248698964	-2.6156140721	-2.5377789487	 0.320246
C	-1.2273852481	-2.1631594335	-3.2989063597	-0.41335
C	 1.3055049148	-2.1563894905	-3.245775787	-0.413349
O	 0.0254441276	-4.03848941	-2.383859769	-0.469875
H	 0.8549481297	 1.7344394473	-0.6623779936	 0.144985
H	-0.9060157993	 1.7296736665	-0.6998041284	 0.144981
H	-0.0586706863	 1.9502253177	 0.8503088896	 0.126846
H	-0.076573495	-0.0950032846	 1.9761455361	 0.219105
H	 0.8662111564	-2.4884681062	-0.5381012191	 0.12235
H	-0.9002596568	-2.4931728009	-0.5751580422	 0.12235
H	-1.294593709	-1.0726700971	-3.3313232247	 0.126831
H	-1.2055211343	-2.5334603716	-4.330463632	 0.100111
H	-2.1254369352	-2.5556127272	-2.8130131433	 0.120536
H	 2.1844757632	-2.5440895418	-2.7226051296	 0.120536
H	 1.3288975629	-2.5266901724	-4.2772995723	 0.10011
H	 1.3681836625	-1.0655529187	-3.2754714294	 0.126831
H	 0.044941828	-4.4277107131	-3.2641303281	 0.276605
45.1248	62.9671	111.652	130.3725	173.6917	222.0504	233.5733	246.0671	259.2042	312.5093	341.9019	378.4426	459.5066	470.8798	515.0845	573.3761	613.4266	766.5475	853.3748	904.8964	914.9424	945.3544	952.9434	985.1096	1010.5609	1036.466	1067.8123	1075.6495	1119.061	1148.2991	1201.754	1223.2783	1286.5296	1344.5614	1382.2339	1392.6145	1399.1144	1409.0483	1431.9037	1472.0789	1479.8846	1482.5147	1484.9057	1492.6185	1510.376	1515.9197	1728.6976	3028.656	3034.3147	3047.5794	3057.1895	3097.3379	3102.9442	3105.5854	3110.4548	3123.5853	3127.427	3143.5138	3517.0858	3814.8373
CC(=N)OCC(C)(C)O	C[C]([NH])OCC(C)(C)O	
InChI=1S/C6H13NO2/c1-5(7)9-4-6(2,3)8/h7-8H,4H2,1-3H3	InChI=1S/C6H13NO2/c1-5(7)9-4-6(2,3)8/h7-8H,4H2,1-3H3
