20
gdb 56026	3.62749	0.89597	0.86295	2.3305	76.74	-0.2412	0.0353	0.2765	1437.6922	0.171346	-440.326421	-440.316887	-440.315942	-440.363087	33.452	
C	-0.145936626	 1.5210759881	-0.0352824996	-0.48476
C	-0.0102142469	 0.0314913318	 0.243488419	 0.407672
O	 0.8602813483	-0.4132186855	 0.9710115115	-0.377054
N	-0.9382306947	-0.7599697157	-0.3718426426	-0.317691
C	-0.9659516217	-2.2051628941	-0.2245439732	 0.037082
C	-2.2305509707	-2.7041436	 0.5242279152	-0.255306
C	-3.2135924126	-3.0615649717	-0.6226103179	-0.074548
O	-2.5485078403	-2.7343866081	-1.844426325	-0.257181
C	-1.1570372471	-2.8747633274	-1.5902985558	-0.107391
H	 0.8228655421	 1.9055243695	-0.3628958889	 0.152581
H	-0.9017623668	 1.7626067951	-0.7872363008	 0.110774
H	-0.4003693121	 2.0317381871	 0.8979609278	 0.151481
H	-1.6301030483	-0.3439602084	-0.974604069	 0.247266
H	-0.0410226859	-2.4810995354	 0.2811807161	 0.120919
H	-1.9950583397	-3.5835989455	 1.1287170894	 0.114466
H	-2.6180051708	-1.9336078279	 1.1926556925	 0.115637
H	-3.4651432853	-4.1318679757	-0.6055869293	 0.09815
H	-4.1471117811	-2.4931897894	-0.5938817824	 0.110228
H	-0.6081255205	-2.3872153918	-2.3987512055	 0.114522
H	-0.8647019695	-3.936846325	-1.5454809518	 0.093153
30.872	48.8166	59.1596	100.4332	154.2794	233.6134	328.3189	431.7167	449.7246	491.7643	600.4853	642.6853	698.9771	755.4301	805.7091	897.3576	911.8375	925.713	943.9727	978.0928	1006.4391	1039.9943	1050.4824	1075.8482	1106.3906	1161.9808	1218.2405	1231.2671	1251.0327	1254.9539	1278.8375	1315.9111	1350.0395	1363.44	1396.3483	1399.0113	1470.0508	1486.2545	1487.9531	1503.9031	1525.9032	1530.1565	1776.5583	2972.4717	2998.2082	3048.9928	3073.3405	3084.2499	3110.2698	3123.3174	3125.3025	3133.3148	3134.9194	3637.639
CC(=O)NC1CCOC1	CC(=O)N[C@H]1CCOC1	
InChI=1S/C6H11NO2/c1-5(8)7-6-2-3-9-4-6/h6H,2-4H2,1H3,(H,7,8)	InChI=1S/C6H11NO2/c1-5(8)7-6-2-3-9-4-6/h6H,2-4H2,1H3,(H,7,8)/t6-/m0/s1
