19
gdb 101600	3.14754	0.87523	0.71815	2.0699	69.1	-0.2686	0.0035	0.2722	1558.2871	0.156716	-497.323815	-497.313312	-497.312368	-497.360486	36.483	
C	-0.5216220774	 1.1506829558	-0.6243316167	-0.243547
O	-0.8036348676	-0.2534958714	-0.5236995737	-0.239363
C	-1.3783765559	-0.6544781143	 0.6461780351	 0.413441
O	-1.6326115286	 0.1116723759	 1.5370476705	-0.344296
C	-1.6379669187	-2.143166788	 0.636665258	-0.320409
C	-2.5097612703	-2.6121463637	-0.5452008162	 0.097629
O	-1.8305332665	-2.5668590096	-1.7825938565	-0.441201
C	-2.9496400695	-4.0674455723	-0.350050644	-0.076601
O	-3.7274889288	-4.2531770125	 0.8189481184	-0.412358
H	-0.0630254235	 1.292799976	-1.6027432042	 0.136165
H	-1.4412328299	 1.7347273052	-0.5416783244	 0.144935
H	 0.1634181342	 1.4580554497	 0.1688963117	 0.147662
H	-0.6779811096	-2.6702284521	 0.5786025308	 0.131033
H	-2.1278030705	-2.4034969637	 1.5757734953	 0.144713
H	-3.4205479831	-1.9841781636	-0.5752135105	 0.059885
H	-1.3764106855	-1.7166017405	-1.8271758983	 0.292797
H	-3.4750202545	-4.3944675437	-1.258079668	 0.103753
H	-2.062371365	-4.6989762254	-0.2371046856	 0.118249
H	-4.5779346092	-3.8230322818	 0.6834056881	 0.287514
35.1112	78.453	114.3514	124.2132	140.3808	213.4747	224.2069	294.1442	315.1055	363.8008	422.4196	451.1979	467.1291	512.6268	636.1732	754.9858	828.0291	886.2046	917.8195	1020.9014	1038.432	1072.4948	1098.9931	1111.5375	1173.8164	1180.139	1201.2714	1209.5619	1273.4692	1296.298	1311.1633	1363.2255	1390.7794	1406.1872	1453.7988	1463.2924	1474.0445	1480.9086	1498.8104	1504.0047	1834.8954	2918.6306	3012.7592	3047.0435	3056.7691	3084.8503	3134.5366	3139.1663	3162.8736	3779.5818	3816.44
COC(=O)CC(O)CO	COC(=O)C[C@@H](O)CO	
InChI=1S/C5H10O4/c1-9-5(8)2-4(7)3-6/h4,6-7H,2-3H2,1H3	InChI=1S/C5H10O4/c1-9-5(8)2-4(7)3-6/h4,6-7H,2-3H2,1H3/t4-/m1/s1
