19
gdb 109130	4.17249	0.96571	0.84373	3.5139	80.25	-0.2045	0.0163	0.2208	1390.924	0.161006	-419.271295	-419.262161	-419.261216	-419.30607	33.284	
C	-0.1877055175	 1.5754569044	-0.0640160564	-0.370813
C	 0.0886126804	 0.0624965904	 0.0086527375	-0.275405
C	 0.763320435	-0.5043448261	-1.2107880561	 0.249444
C	 2.0205726533	-0.9541778843	-1.2002628029	-0.069941
N	 2.6374845034	-1.4968944467	-2.3246379149	-0.370201
C	 2.0841924591	-1.4347872795	-3.5948702779	 0.454009
O	 2.6858253924	-1.8060789779	-4.5857437474	-0.411366
N	 0.8246991347	-0.8958415725	-3.6281907215	-0.357138
C	-0.0372762092	-0.6142195798	-2.4857067603	-0.245847
H	 0.7447626043	 2.134820778	-0.1867759983	 0.121305
H	-0.8418475204	 1.8300389514	-0.9038740423	 0.118037
H	-0.6779122877	 1.9234553426	 0.8506288975	 0.11447
H	 0.7099081813	-0.145541551	 0.8870801848	 0.101727
H	-0.863598183	-0.4619270917	 0.1780506133	 0.099739
H	 2.6342419711	-0.9333611745	-0.3063379722	 0.108116
H	 3.6014148446	-1.7820041796	-2.2999651475	 0.259398
H	 0.4123306686	-0.917978142	-4.5469664548	 0.252586
H	-0.8139084758	-1.3929640716	-2.3703163663	 0.107279
H	-0.5785485846	 0.3217894504	-2.6807625044	 0.114602
44.913	73.1605	106.1801	184.3458	204.5211	318.577	356.8886	446.759	453.8717	460.4732	521.5935	557.1898	612.4564	735.6379	760.1277	787.044	837.6144	890.557	960.7956	974.4481	1031.117	1050.2872	1089.5528	1115.2539	1186.3155	1219.2667	1246.7619	1277.5496	1293.551	1360.1406	1385.8691	1406.8835	1434.5715	1459.3486	1478.9277	1487.6593	1500.096	1507.2076	1534.1059	1759.0227	1815.9254	2919.82	2996.8588	3006.645	3037.4229	3057.4876	3105.7373	3111.6452	3191.0295	3645.4939	3674.9135
CCC1=CNC(=O)NC1	CCC1=CNC(=O)NC1	
InChI=1S/C6H10N2O/c1-2-5-3-7-6(9)8-4-5/h3H,2,4H2,1H3,(H2,7,8,9)	InChI=1S/C6H10N2O/c1-2-5-3-7-6(9)8-4-5/h3H,2,4H2,1H3,(H2,7,8,9)
