19
gdb 90265	3.4074	1.50256	1.24608	2.8021	74.98	-0.2303	0.0572	0.2875	1041.8743	0.159554	-422.965049	-422.957297	-422.956353	-422.99735	30.626	
O	-0.1746734472	 1.4469072212	 0.0375138733	-0.414959
C	-0.0197677994	 0.0506695022	 0.0235534025	 0.093163
C	 0.3612465635	-0.6238793191	 1.3903575821	-0.39188
C	-1.0760319602	-1.1356793834	 1.5030756422	 0.326772
C	-1.7556310043	-2.3196575398	 2.1991333892	-0.351061
C	-3.0511546607	-1.452149129	 2.357158104	-0.234454
C	-2.2786145416	-0.2073681521	 1.8383056098	 0.078626
O	-2.5255858999	 0.1150452305	 0.4519709388	-0.290707
C	-1.4057006566	-0.685323673	 0.0558627696	 0.066164
H	 0.6996095838	 1.8381261951	 0.1330113323	 0.285493
H	 0.6125939994	-0.2798720929	-0.8126129672	 0.066736
H	 1.0985598007	-1.4241241358	 1.2668639948	 0.100948
H	 0.7043605132	 0.0547736213	 2.1775499129	 0.095431
H	-1.8380122395	-3.247455491	 1.6256571226	 0.099672
H	-1.2973903382	-2.5555033626	 3.1646645409	 0.105656
H	-3.8742707857	-1.7276607628	 1.6948703571	 0.115195
H	-3.4280487006	-1.371523295	 3.3794084279	 0.102417
H	-2.2329098236	 0.6795761129	 2.4753444659	 0.077441
H	-1.6253913633	-1.3440292666	-0.7896099587	 0.069346
65.184	165.2519	233.1255	278.4694	292.918	381.7984	413.5951	483.8851	592.0927	657.1882	711.9793	785.346	795.7666	844.727	851.914	886.1291	906.6126	927.0265	953.0558	1027.9	1031.8626	1055.3479	1101.3353	1133.0548	1153.1697	1173.4313	1180.1864	1194.9531	1208.4896	1223.3587	1231.9423	1259.0285	1289.2794	1295.6962	1312.9233	1332.0939	1349.6255	1416.2871	1463.7222	1469.744	1488.5617	2991.3268	3039.3371	3046.999	3064.5721	3066.5046	3080.2703	3091.6727	3091.8805	3129.4819	3815.9112
OC1CC23CCC2OC13	O[C@H]1C[C@@]23CC[C@@H]2O[C@@H]13	
InChI=1S/C7H10O2/c8-4-3-7-2-1-5(7)9-6(4)7/h4-6,8H,1-3H2	InChI=1S/C7H10O2/c8-4-3-7-2-1-5(7)9-6(4)7/h4-6,8H,1-3H2/t4-,5-,6-,7-/m0/s1
