18
gdb 6812	3.02447	1.71765	1.4367	1.9818	73.68	-0.25	0.0205	0.2705	959.1716	0.151203	-347.754696	-347.745961	-347.745017	-347.78792	32.347	
C	-0.1956827787	 1.5478522335	-0.023234222	-0.442469
C	-0.0458489464	 0.029348618	-0.026936638	 0.258234
C	-1.3546706876	-0.6701928731	-0.3745544478	-0.45602
C	 1.2158211818	-0.4587206908	-0.7823559981	-0.101219
O	 1.8974883874	-0.782136128	 0.4470824829	-0.285301
C	 0.6999847595	-0.553907221	 1.2274870858	-0.079659
C	 0.9091148159	 0.2860603358	 2.3926811611	 0.332116
C	 1.064767806	 0.9764839843	 3.364713102	-0.445608
H	 0.746039147	 2.0407563937	 0.233015815	 0.132041
H	-0.5085575594	 1.898610747	-1.0130496372	 0.111514
H	-0.9483495234	 1.8689376202	 0.7037957817	 0.1221
H	-1.7095486061	-0.3626246225	-1.3645275558	 0.119258
H	-1.2388470575	-1.758845338	-0.3829543942	 0.118045
H	-2.137714214	-0.4190581334	 0.3496062382	 0.123066
H	 1.0607993569	-1.3478323257	-1.4084315481	 0.09445
H	 1.7579958948	 0.2978998129	-1.3612998751	 0.104429
H	 0.2643780883	-1.5118616292	 1.5483163991	 0.094387
H	 1.2103564754	 1.5840350863	 4.2236973606	 0.200635
45.1595	141.752	188.5364	215.7441	253.0101	295.2016	338.9436	364.5564	389.7021	522.9836	541.3362	622.6438	651.7306	672.7784	820.1073	871.3128	930.6256	964.6818	971.0761	994.0041	1023.3964	1039.682	1070.7672	1156.8032	1201.2807	1219.2307	1268.103	1286.9605	1354.4549	1366.1979	1406.7755	1425.916	1482.6493	1484.9977	1502.0143	1504.9163	1525.6832	2232.1903	2987.1757	3005.7236	3026.3792	3034.025	3057.5024	3093.2126	3099.7349	3100.716	3116.432	3501.7138
CC1(C)COC1C#C	CC1(C)CO[C@H]1C#C	
InChI=1S/C7H10O/c1-4-6-7(2,3)5-8-6/h1,6H,5H2,2-3H3	InChI=1S/C7H10O/c1-4-6-7(2,3)5-8-6/h1,6H,5H2,2-3H3/t6-/m0/s1
