17
gdb 5616	3.22324	1.80115	1.25873	1.7779	70.71	-0.1857	0.0514	0.2371	977.1447	0.142585	-363.89788	-363.889565	-363.888621	-363.930582	30.793	
C	 0.0005643466	 1.5814930107	-0.118294322	-0.365596
C	-0.0304303609	 0.0483958926	 0.025927123	-0.32704
C	-1.418030642	-0.523924855	 0.0357296581	 0.165432
C	-2.118932348	-1.0236685339	 1.1145812895	-0.166679
N	-3.3599695411	-1.4047415902	 0.6882158674	-0.241284
C	-3.4869490137	-1.1710616536	-0.6653713681	-0.166001
C	-2.2981846019	-0.624198296	-1.0855508226	 0.228903
O	-2.0414149915	-0.2362729286	-2.3731888674	-0.451989
H	 1.0286084488	 1.9573832607	-0.1496579657	 0.106912
H	-0.5068726568	 1.902466674	-1.0341416212	 0.116711
H	-0.5148094403	 2.0572573986	 0.7214040142	 0.121597
H	 0.5588563608	-0.3994709711	-0.7890200894	 0.089885
H	 0.4868136241	-0.2409060605	 0.9475189254	 0.103899
H	-1.8216987577	-1.1345262337	 2.1455370482	 0.113397
H	-4.0705407176	-1.8130316743	 1.2672222167	 0.260065
H	-4.3872607592	-1.4050260018	-1.2070352587	 0.117026
H	-1.0998140096	-0.0586985678	-2.4527704973	 0.294761
66.1025	139.9597	195.7892	203.4965	279.6999	293.778	367.6388	435.0431	448.7329	617.0226	625.8728	642.1816	714.376	732.9313	742.7257	786.1021	902.3607	961.6683	1049.5575	1076.3785	1085.1907	1128.4295	1177.4491	1230.0633	1265.1744	1308.1924	1340.7123	1369.4749	1406.9344	1441.1224	1481.0916	1485.968	1494.4039	1508.7643	1566.1889	1655.1944	2985.9719	3032.4083	3056.6724	3101.439	3110.3925	3254.9572	3279.7404	3700.8496	3839.4061
CCC1=CNC=C1O	CCc1c[nH]cc1O	
InChI=1S/C6H9NO/c1-2-5-3-7-4-6(5)8/h3-4,7-8H,2H2,1H3	InChI=1S/C6H9NO/c1-2-5-3-7-4-6(5)8/h3-4,7-8H,2H2,1H3
