13
gdb 131000	7.59155	0.76057	0.69431	2.3639	60.43	-0.2742	-0.0438	0.2304	1475.1137	0.088089	-489.87331	-489.865455	-489.864511	-489.907444	26.372	
O	-0.2231164744	 0.2061749487	 0.5064721729	-0.228916
C	 0.0470046323	 1.1292046712	-0.2120027422	 0.139643
C	 1.3714828661	 1.8672718577	-0.1369970037	-0.163928
O	 1.3394387213	 2.8940396157	-1.1307041732	-0.249817
C	 2.4218486006	 3.6539428085	-1.2185884892	 0.474945
N	 3.4872318055	 3.5159540194	-0.4637790535	-0.220541
O	 4.3268418422	 4.5378959196	-0.9426790249	-0.162804
C	 3.6524864763	 5.1474032615	-1.9162481619	 0.120803
N	 2.4743965859	 4.6641382773	-2.147140888	-0.321186
H	-0.6476010831	 1.5176037614	-0.9877694195	 0.109658
H	 1.5106969907	 2.2970833977	 0.8622815445	 0.163557
H	 2.2026511414	 1.1753947034	-0.3190472785	 0.16356
H	 4.141989285	 5.972427848	-2.4131178829	 0.175027
49.2299	64.4915	120.0471	135.3698	304.2833	344.2095	403.9688	586.1507	616.3834	729.3863	774.7433	775.8888	913.065	937.3515	974.8197	1020.179	1061.946	1093.0667	1107.6786	1155.757	1236.5235	1311.3118	1336.3704	1399.0559	1417.363	1469.4791	1564.6732	1618.8261	1849.8401	2911.4542	3036.6282	3080.6139	3266.4363
O=CCOC1=NOC=N1	O=CCOc1nocn1	
InChI=1S/C4H4N2O3/c7-1-2-8-4-5-3-9-6-4/h1,3H,2H2	InChI=1S/C4H4N2O3/c7-1-2-8-4-5-3-9-6-4/h1,3H,2H2
