16
gdb 11018	3.85775	1.7523	1.4929	4.0152	64.77	-0.236	-0.0105	0.2255	865.8711	0.130698	-383.758635	-383.75151	-383.750566	-383.789724	27.797	
O	-0.1411314768	 1.3909702324	 0.058769278	-0.466552
C	-0.0689837706	 0.0011194533	 0.0235323896	 0.407902
C	-0.5416947158	-0.736642777	-1.1841555463	-0.352403
C	-1.3547592025	-0.7941351884	 0.1187515972	-0.188548
C	-1.0899423795	-1.9724413427	 0.9981946547	 0.425973
O	-1.9167917996	-2.6794473017	 1.5177399957	-0.329703
C	 0.4335440563	-2.0906544963	 1.1868687005	-0.344944
C	 0.9888099389	-0.6822793444	 0.8917928676	-0.285399
H	 0.5470867825	 1.7426332109	-0.5167357006	 0.286533
H	-1.000534862	-0.1392163797	-1.9638956763	 0.128128
H	-0.0256077352	-1.6261086489	-1.531380528	 0.120116
H	-2.3318570608	-0.329682039	 0.131257964	 0.115946
H	 0.657777593	-2.4580202812	 2.1897577141	 0.133102
H	 0.8159242296	-2.8382314566	 0.4814763784	 0.129711
H	 1.9745557536	-0.698841623	 0.41402499	 0.098081
H	 1.0786918691	-0.1046812276	 1.8173685815	 0.122057
118.3622	186.2182	250.2974	319.0662	371.5717	425.5049	481.6945	514.402	563.2327	645.495	686.8045	774.8367	822.5777	892.7244	914.0398	939.4313	980.6985	996.5571	1044.0238	1056.8649	1062.7874	1148.6227	1177.4525	1218.9988	1227.2813	1275.5314	1286.475	1322.4462	1329.3743	1402.0764	1461.3482	1481.2422	1506.0082	1835.9698	3039.4844	3046.5156	3085.5735	3120.1491	3128.5096	3209.745	3222.7359	3797.1439
OC12CC1C(=O)CC2	O[C@]12C[C@H]1C(=O)CC2	
InChI=1S/C6H8O2/c7-5-1-2-6(8)3-4(5)6/h4,8H,1-3H2	InChI=1S/C6H8O2/c7-5-1-2-6(8)3-4(5)6/h4,8H,1-3H2/t4-,6+/m0/s1
