19
gdb 11590	5.92884	0.88588	0.81718	2.1134	72.91	-0.2327	-0.0098	0.2229	1420.3892	0.163241	-365.052605	-365.043433	-365.042489	-365.08786	31.976	
C	 0.1707500964	 1.4796664702	-0.1108848289	-0.472127
C	-0.0765478137	-0.0091747911	 0.0614921863	 0.379522
O	-0.3488825903	-0.4905862365	 1.1383898494	-0.293107
C	 0.0335134931	-0.8601890197	-1.194710096	-0.298083
C	-0.2308411606	-2.3428670993	-0.949060846	-0.139938
N	-0.1797968332	-3.0794870271	-2.2075753075	-0.065562
C	 1.1260444767	-3.6098946233	-2.5910931061	-0.222504
C	 0.0506731	-4.5146903899	-2.099619488	-0.219503
H	 1.1693415921	 1.6568519494	-0.5257431267	 0.136735
H	-0.5468693581	 1.9045333832	-0.8218448521	 0.139289
H	 0.0767404127	 1.9848920765	 0.8510367881	 0.14214
H	-0.6660852582	-0.47411785	-1.947742664	 0.131133
H	 1.031557428	-0.7107420612	-1.6298311623	 0.11902
H	 0.4862948568	-2.7293843905	-0.2048144992	 0.093211
H	-1.2278996476	-2.4696846629	-0.515654864	 0.118229
H	 1.3686245969	-3.5606858097	-3.6487521596	 0.115461
H	 1.9664287154	-3.4320667394	-1.9208672439	 0.107478
H	 0.1759818899	-4.9373297856	-1.1038163924	 0.112001
H	-0.5080894463	-5.1375807731	-2.7922430472	 0.116604
36.6512	67.9448	100.9788	122.5875	143.6331	270.1454	313.8907	397.4125	470.7436	482.7988	585.3756	756.5698	765.145	823.4524	854.5806	908.7935	939.1658	941.979	1022.3602	1037.5274	1087.5292	1109.4393	1115.9621	1120.7157	1168.6264	1172.0264	1188.07	1237.5239	1309.2445	1322.5063	1329.3812	1383.8027	1405.3466	1452.6641	1465.8667	1477.2736	1486.9789	1497.4415	1521.1418	1807.6287	2960.0621	3021.5412	3037.64	3052.2686	3079.9718	3090.206	3097.2348	3097.5792	3151.8268	3175.3308	3189.8785
CC(=O)CCN1CC1	CC(=O)CCN1CC1	
InChI=1S/C6H11NO/c1-6(8)2-3-7-4-5-7/h2-5H2,1H3	InChI=1S/C6H11NO/c1-6(8)2-3-7-4-5-7/h2-5H2,1H3
