14
gdb 9450	2.91457	1.78889	1.69069	1.1578	64.69	-0.2532	0.0035	0.2567	851.9398	0.106289	-378.667638	-378.65973	-378.658786	-378.699783	28.975	
N	 0.0677846145	 1.495201122	 0.0986659963	-0.551315
C	 0.0301076253	 0.0427192159	 0.0145246242	-0.015464
C	-1.3967914075	-0.5652818253	-0.1495774874	-0.092539
O	-1.0076832443	-1.1743255728	-1.4169755917	-0.254526
C	 0.25131805	-0.620207911	-1.3651461392	 0.39175
N	 1.1921020677	-0.6169961186	-2.1892968415	-0.540504
C	 0.8252086758	-0.5562825627	 1.0751430573	 0.341783
C	 1.4836655917	-1.0583631708	 1.9448907178	-0.469787
H	 1.0323619162	 1.7995206214	 0.190707762	 0.250173
H	-0.2813328591	 1.8971480465	-0.7677165512	 0.238306
H	-1.6932176472	-1.3170246976	 0.5824027837	 0.136071
H	-2.1812042272	 0.1821001514	-0.2915014444	 0.125356
H	 0.9580629748	-1.1347473181	-3.0381858031	 0.233003
H	 2.0714278495	-1.5016359904	 2.7107197572	 0.207694
100.2908	131.3836	179.1288	233.6822	239.8358	342.0747	405.8256	514.4649	569.1254	633.4924	646.5059	662.8637	702.7403	772.5206	848.516	863.8787	940.126	980.9325	1000.3722	1021.3795	1067.6736	1150.625	1220.4535	1228.4871	1332.0093	1373.0682	1511.6378	1658.0199	1823.063	2245.2845	3070.7921	3145.2555	3475.8324	3489.5615	3500.8833	3573.755
NC1(COC1=N)C#C	N[C@]1(CO[C]1[NH])C#C	
InChI=1S/C5H6N2O/c1-2-5(7)3-8-4(5)6/h1,6H,3,7H2	InChI=1S/C5H6N2O/c1-2-5(7)3-8-4(5)6/h1,6H,3,7H2/t5-/m0/s1
