20
gdb 76702	3.25653	0.79618	0.75494	5.6196	80.11	-0.2626	0.0397	0.3023	1570.3981	0.169791	-403.150993	-403.140925	-403.13998	-403.186748	36.033	
C	 0.0186621969	 1.5993388317	-0.1916333149	-0.419746
C	 0.0345368561	 0.0934710159	-0.0357876032	-0.073698
C	 1.33850441	-0.6776696345	-0.01812573	 0.07163
O	 2.5540143547	 0.0174413057	 0.0256055741	-0.415442
C	 0.5057986512	-0.6011309852	 1.2344137155	-0.059428
C	 1.0065584875	 0.1601424941	 2.4444954091	-0.206297
C	 2.0967360244	-0.6417411329	 3.1906711791	-0.331704
C	 2.5528403015	 0.0282089848	 4.4060832748	 0.253357
N	 2.899184996	 0.5729604731	 5.3648200282	-0.310281
H	 0.9523765623	 2.0524451916	 0.1484676579	 0.130933
H	-0.1151270265	 1.8720519327	-1.2443625876	 0.116263
H	-0.8035478036	 2.0529968165	 0.3714713622	 0.125052
H	-0.784987052	-0.4102292868	-0.5423908371	 0.087901
H	 1.3832573804	-1.6281707839	-0.5492571579	 0.086687
H	 2.7380884185	 0.3659316478	-0.8530220825	 0.293874
H	-0.0293409794	-1.5136736816	 1.4877885556	 0.08823
H	 1.427169398	 1.124271569	 2.1554456329	 0.130944
H	 0.1740694004	 0.3654301536	 3.1260491497	 0.116802
H	 1.722407646	-1.6356843691	 3.4629017809	 0.143463
H	 2.9521898775	-0.7907933524	 2.5240788532	 0.171459
59.8597	76.0032	89.43	157.9149	190.0962	200.6256	273.1161	291.9492	312.2979	403.7467	462.2641	525.446	583.4415	601.5903	754.9927	778.6152	793.5928	888.332	949.804	956.8767	986.3041	1031.6266	1038.4138	1075.6038	1120.6006	1143.0731	1152.1354	1180.6662	1223.1637	1252.5488	1280.6891	1295.4875	1317.544	1359.9977	1383.2879	1397.4851	1418.5305	1460.2227	1471.9659	1487.4011	1500.3731	1506.9997	2360.4074	3035.6381	3043.5781	3054.4965	3090.9448	3092.3261	3097.2489	3115.4664	3124.4961	3131.3851	3143.377	3806.1661
CC1C(O)C1CCC#N	C[C@H]1[C@@H](O)[C@H]1CCC#N	
InChI=1S/C7H11NO/c1-5-6(7(5)9)3-2-4-8/h5-7,9H,2-3H2,1H3	InChI=1S/C7H11NO/c1-5-6(7(5)9)3-2-4-8/h5-7,9H,2-3H2,1H3/t5-,6+,7-/m1/s1
