21
gdb 72640	2.00796	1.93265	1.56497	1.5855	82.68	-0.2381	0.0218	0.2598	1023.3342	0.182249	-387.09822	-387.089677	-387.088732	-387.130643	33.944	
C	-0.4508629891	 1.3668508628	 0.0599788197	-0.460668
C	 0.0661727867	-0.0554222888	-0.0383901049	 0.398499
C	 0.9601089679	-0.3364808497	-1.2629671883	-0.31084
C	 1.9922677405	-1.300127442	-0.7315146516	-0.073587
C	 1.8841926797	-1.5020829554	 0.5811040172	-0.126271
C	 0.7498361437	-0.7314568445	 1.2070402504	 0.197594
C	 1.1463358336	 0.0820942242	 2.4311385085	-0.480434
C	-0.5657995785	-1.5459109052	 1.2885317868	-0.112413
O	-1.0270432895	-1.0153204978	 0.0331036336	-0.330868
H	 0.3751326045	 2.0839200965	 0.1131964459	 0.114957
H	-1.0521451138	 1.6059348292	-0.8237485079	 0.1256
H	-1.0846875231	 1.4992969833	 0.9412280685	 0.117979
H	 0.3495448461	-0.7679158168	-2.0653160161	 0.119922
H	 1.4210521227	 0.5750843727	-1.667495976	 0.097979
H	 2.7364486768	-1.7647759734	-1.3698233868	 0.093556
H	 2.5233433807	-2.1547856788	 1.1679605146	 0.089443
H	 1.9649921469	 0.7722270675	 2.2019494014	 0.120276
H	 0.3061365166	 0.6658086883	 2.8199250475	 0.117477
H	 1.4895836487	-0.5775154875	 3.2367565876	 0.117525
H	-0.4727068887	-2.638047577	 1.2673606434	 0.097424
H	-1.2233394122	-1.2572919377	 2.1216312863	 0.086852
113.7572	198.0436	223.2221	234.362	250.7772	292.7135	340.2822	362.5696	446.5782	484.125	568.2187	653.2984	674.2	751.8486	764.5635	865.0187	895.5822	918.8133	944.8734	957.6413	968.8293	975.2321	991.8021	1025.1718	1092.321	1104.7231	1157.788	1165.8676	1192.1462	1195.5216	1218.4629	1246.4985	1251.6963	1340.0648	1347.5896	1381.4348	1404.8362	1412.8892	1465.802	1480.8637	1486.8282	1496.6129	1499.6421	1522.9405	1683.1332	2990.2641	3012.6118	3027.3456	3033.9721	3051.9894	3057.392	3089.8335	3101.855	3102.5783	3113.8892	3169.9294	3197.1462
CC12CC=CC1(C)CO2	C[C@@]12CC=C[C@]1(C)CO2	
InChI=1S/C8H12O/c1-7-4-3-5-8(7,2)9-6-7/h3-4H,5-6H2,1-2H3	InChI=1S/C8H12O/c1-7-4-3-5-8(7,2)9-6-7/h3-4H,5-6H2,1-2H3/t7-,8-/m1/s1
