15
gdb 123962	3.84355	1.60039	1.14043	3.3142	72.11	-0.2015	0.0058	0.2073	990.2082	0.117678	-413.013337	-413.006584	-413.00564	-413.044502	26.279	
C	 0.0224381087	 1.5326201466	-0.0974522272	-0.289928
N	 1.3599779085	 2.0689965341	 0.2038280855	-0.238396
C	 2.3593331065	 1.3008413858	 0.3277868307	 0.077496
N	 2.3904375952	-0.0956788491	 0.1824369178	-0.438002
C	 1.1364539069	-0.6845168085	 0.1068881183	 0.428966
C	-0.028875207	 0.0316626684	-0.0323661057	 0.142891
C	-1.0274353246	-0.9665499006	-0.0825242776	-0.110965
N	-0.5245680535	-2.1943674951	 0.0138116324	-0.237325
N	 0.8188952636	-1.9978330142	 0.1251316645	-0.322362
H	-0.6835284777	 1.9971557879	 0.6037562006	 0.120036
H	-0.2659821396	 1.9102476392	-1.0898296055	 0.119561
H	 3.3378029873	 1.7262125879	 0.5496075437	 0.11722
H	 3.1467937091	-0.5864772708	 0.6347522423	 0.2516
H	-2.0961618146	-0.842109719	-0.1839972897	 0.110608
H	 1.4245794313	-2.7957749225	 0.2077763498	 0.268601
96.205	237.016	305.1713	382.4761	395.283	421.7279	503.5406	529.6988	632.6308	672.2187	704.4998	758.347	887.6822	896.3517	932.1453	951.2168	964.937	1031.7475	1082.0393	1094.1046	1215.5258	1228.1787	1253.3728	1294.6866	1317.6516	1402.3322	1412.8523	1444.084	1450.4623	1502.0021	1589.6213	1645.486	1748.4823	2986.9486	3016.7945	3135.7108	3239.6567	3612.3799	3679.2116
C1N=CNC2=C1C=NN2	C1N=CNc2c1cn[nH]2	
InChI=1S/C5H6N4/c1-4-2-8-9-5(4)7-3-6-1/h2-3H,1H2,(H2,6,7,8,9)	InChI=1S/C5H6N4/c1-4-2-8-9-5(4)7-3-6-1/h2-3H,1H2,(H2,6,7,8,9)
