17
gdb 9805	3.25363	1.60155	1.40555	3.6235	64.74	-0.246	-0.0331	0.2129	950.8542	0.140356	-400.97818	-400.969712	-400.968768	-401.01128	30.956	
C	-0.1579868081	 1.5468972428	-0.4714530287	-0.481697
C	-0.0052182599	 0.0995539892	-0.0496769392	 0.277454
C	 0.9536894325	-0.7696589526	-0.7748034389	-0.266147
N	 1.239493816	-0.3393153405	 0.6077893556	-0.345627
C	-1.2703046261	-0.5478561679	 0.5459339712	 0.015488
O	-1.260756014	-1.9432827026	 0.4747601742	-0.431189
C	-1.4238699277	-0.112338208	 1.9947877418	 0.153967
O	-1.503819848	-0.9155755654	 2.8908647314	-0.260457
H	 0.7731720978	 1.9197728217	-0.9092416701	 0.121869
H	-0.9483278041	 1.6583726761	-1.2221632449	 0.131193
H	-0.4104628361	 2.1988123908	 0.3729583344	 0.123874
H	 0.7336718133	-1.8252859902	-0.8795172986	 0.142583
H	 1.5198289524	-0.3206456617	-1.5873566303	 0.106393
H	 1.919171712	 0.4176610303	 0.6043608805	 0.227307
H	-2.1389981743	-0.1507190506	-0.0092131849	 0.090493
H	-1.2493585187	-2.2503901251	 1.395653164	 0.298323
H	-1.450679437	 0.9781217837	 2.1898319527	 0.096174
56.2443	104.7286	203.0811	228.4827	268.1944	333.3554	343.5723	358.7842	439.0291	458.4535	534.6659	698.3299	774.1979	835.9788	842.3181	930.8908	944.565	969.4077	991.8115	1023.1639	1070.4125	1125.84	1153.0528	1161.7376	1260.915	1271.7208	1295.3941	1357.1775	1375.3582	1402.7911	1421.7289	1444.5617	1487.105	1497.2176	1505.7111	1817.446	2934.9941	2954.8776	3026.4215	3086.9284	3102.8102	3115.6082	3222.2348	3492.9014	3684.9094
CC1(CN1)C(O)C=O	C[C@]1(CN1)[C@@H](O)C=O	
InChI=1S/C5H9NO2/c1-5(3-6-5)4(8)2-7/h2,4,6,8H,3H2,1H3	InChI=1S/C5H9NO2/c1-5(3-6-5)4(8)2-7/h2,4,6,8H,3H2,1H3/t4-,5-/m0/s1
