20
gdb 124593	3.84369	1.05673	0.90265	2.9561	81.71	-0.2457	0.019	0.2647	1364.9368	0.171428	-399.376381	-399.367003	-399.366059	-399.411223	33.956	
C	 0.4808244558	 1.5452765243	-0.4059752757	-0.412109
C	 0.031461392	 0.1788016256	 0.1094925096	 0.068115
C	 0.2114577623	-0.9295577875	-0.9337902806	-0.381712
N	 0.731047097	-0.1739617861	 1.3478008326	 0.040981
C	 1.8616749319	 0.3085863566	 1.9018744908	 0.002458
N	 2.1540876552	-0.3434107783	 3.0122534933	-0.3246
C	 1.1413536313	-1.2547342814	 3.1041635898	 0.348541
C	 1.0257157794	-2.239208012	 4.2192377783	-0.480494
N	 0.2578284667	-1.1888397739	 2.1167308674	-0.301866
H	 1.5275066696	 1.5306552962	-0.727003982	 0.128639
H	-0.1248217086	 1.8177634	-1.2739959689	 0.12982
H	 0.3581309895	 2.323080792	 0.3528509802	 0.132546
H	-1.0277364658	 0.2323542151	 0.3825183806	 0.112609
H	 1.2594418645	-1.0039235552	-1.2425409079	 0.121705
H	-0.0981777893	-1.8910492262	-0.5194033616	 0.148276
H	-0.3951193364	-0.7159308246	-1.8189830269	 0.118907
H	 2.4284974973	 1.1227109378	 1.4788761516	 0.137059
H	 0.9497368702	-1.7258911132	 5.1829868859	 0.137739
H	 0.1422767879	-2.8645928004	 4.0801930384	 0.135864
H	 1.9120793098	-2.8798738688	 4.263044165	 0.137522
38.3863	93.6507	117.3085	190.0178	240.7301	269.7329	285.244	314.4369	358.9824	439.0574	486.5102	625.536	669.8958	720.2546	722.8456	858.1306	889.7623	935.8827	957.5736	993.9177	1038.0353	1049.2961	1069.2035	1118.8419	1142.6361	1179.6119	1228.242	1264.9727	1344.6602	1359.2587	1373.6865	1398.768	1404.522	1419.3023	1453.3037	1478.2063	1481.3163	1485.5056	1489.4108	1498.2361	1502.9358	1514.1091	1563.6639	3039.5949	3042.7651	3045.6319	3054.6155	3101.253	3109.4264	3116.2062	3124.692	3137.3428	3142.6967	3268.5055
CC(C)N1C=NC(C)=N1	CC(C)n1cnc(C)n1	
InChI=1S/C6H11N3/c1-5(2)9-4-7-6(3)8-9/h4-5H,1-3H3	InChI=1S/C6H11N3/c1-5(2)9-4-7-6(3)8-9/h4-5H,1-3H3
