23
gdb 95576	2.2004	1.52218	1.09367	1.3837	86.28	-0.238	0.0199	0.2579	1210.2407	0.207032	-388.305232	-388.295995	-388.295051	-388.338618	36.326	
C	-0.2795346653	 1.5851211384	 0.0929696467	-0.40172
C	-0.0195744597	 0.0749336909	 0.0156924176	 0.048057
C	 0.6081164209	-0.3503141383	-1.3322962119	-0.282994
C	 1.9037097588	 0.3321087284	-1.7067845444	-0.040681
C	 3.0214148263	 0.3387800173	-0.9797587636	-0.051075
C	 3.2009243771	-0.3271864239	 0.36374408	-0.258988
C	 2.1759316529	 0.0848488375	 1.4378480828	-0.211718
C	 0.7607705117	-0.470015676	 1.2259639383	 0.124766
O	-0.0578564761	-0.2052728565	 2.3642524436	-0.443275
H	 0.637088826	 2.1626228405	-0.0574077746	 0.116792
H	-0.9900335773	 1.8892220673	-0.6831654695	 0.102414
H	-0.700584399	 1.8486856713	 1.0654885002	 0.130327
H	-0.9936759594	-0.4276260134	 0.0756618335	 0.079511
H	 0.7586744155	-1.4401537492	-1.3168703511	 0.103061
H	-0.1288894275	-0.1643994602	-2.1204831545	 0.097707
H	 1.9134173565	 0.8547379435	-2.6606210636	 0.08372
H	 3.8890581251	 0.8615205055	-1.3759877154	 0.083219
H	 3.1622866252	-1.421006862	 0.2451142848	 0.106548
H	 4.2048806643	-0.1066097281	 0.7396925171	 0.098991
H	 2.530653657	-0.2956638293	 2.4068267379	 0.076199
H	 2.1388012707	 1.1755703956	 1.5283868706	 0.109118
H	 0.8517422504	-1.5627016632	 1.0860247267	 0.05319
H	 0.4216659358	-0.4901133063	 3.1484898487	 0.276833
90.2544	143.8201	222.1803	237.5968	263.1506	269.6168	304.3161	337.0993	346.0954	390.3248	496.0412	556.7305	563.3329	707.483	742.8817	755.0617	843.4702	873.0993	900.5455	925.0969	991.739	995.4003	1005.9382	1024.8146	1064.7506	1077.4223	1092.7808	1108.4477	1148.3428	1200.8755	1238.5178	1245.6157	1272.9748	1281.8651	1306.9938	1337.4177	1363.8818	1369.0419	1375.4758	1400.3836	1413.6501	1426.9311	1441.3877	1480.8508	1483.0558	1486.6063	1501.0174	1512.5349	1722.8001	2927.0395	2991.1834	2997.1375	3000.6051	3021.4229	3040.7155	3064.3684	3067.4612	3076.9254	3103.7741	3132.1062	3136.5158	3161.1838	3816.3364
CC1CC=CCCC1O	C[C@H]1CC=CCC[C@H]1O	
InChI=1S/C8H14O/c1-7-5-3-2-4-6-8(7)9/h2-3,7-9H,4-6H2,1H3	InChI=1S/C8H14O/c1-7-5-3-2-4-6-8(7)9/h2-3,7-9H,4-6H2,1H3/t7-,8+/m0/s1
