15
gdb 75793	2.55743	1.33159	1.19608	1.0013	63.07	-0.2624	-0.0458	0.2166	1068.042	0.108956	-494.904063	-494.895233	-494.894289	-494.937811	32.002	
O	 0.3733975705	 0.7685555669	-0.6688995425	-0.430293
C	 0.059513067	-0.3774429918	 0.0650720596	-0.012563
C	 0.0365419226	-0.2388869155	 1.5907759813	 0.338737
O	 0.6448760555	 0.5087661501	 2.3020181666	-0.299283
C	-1.2498712534	-1.0496824553	 1.7081615918	-0.36269
C	-1.489459728	-0.7135624415	 0.1983646918	 0.261109
O	-2.2606237261	 0.4389794929	 0.0127692822	-0.487997
C	-1.9664702632	-1.8672672163	-0.6577539508	 0.102092
O	-1.5307746499	-2.9864515878	-0.5608372897	-0.257773
H	 0.724032723	 1.4178588253	-0.0433386775	 0.311488
H	 0.6076808625	-1.2592033167	-0.2867164814	 0.134154
H	-1.0635950311	-2.1210146861	 1.8330635621	 0.158073
H	-2.0002863472	-0.6964831847	 2.4157166463	 0.15129
H	-1.7255676757	 1.0423559391	-0.525585879	 0.293419
H	-2.7498319567	-1.5868917387	-1.3946397508	 0.100235
74.1295	91.6263	184.7923	216.2816	241.8629	264.1486	319.0027	366.2755	419.2993	515.2338	539.8007	597.383	625.7511	679.4383	756.8903	803.7265	840.3707	920.6098	1035.5001	1047.4538	1102.6499	1125.0112	1160.5933	1187.1029	1212.1787	1260.7255	1325.6148	1366.2319	1379.4239	1401.2182	1423.7587	1818.4031	1883.8332	2909.337	3052.0389	3069.3298	3151.6965	3704.8638	3752.517
OC1C(=O)CC1(O)C=O	O[C@H]1C(=O)C[C@]1(O)C=O	
InChI=1S/C5H6O4/c6-2-5(9)1-3(7)4(5)8/h2,4,8-9H,1H2	InChI=1S/C5H6O4/c6-2-5(9)1-3(7)4(5)8/h2,4,8-9H,1H2/t4-,5-/m0/s1
