18
gdb 78950	2.87225	1.967	1.48195	0.8697	73.71	-0.2257	0.0604	0.2861	917.6147	0.148122	-401.856231	-401.848977	-401.848033	-401.887371	29.589	
C	-0.0388360117	 1.4969342761	 0.0841702127	-0.521825
C	-0.0102418808	-0.0062408173	 0.0733811976	 0.333335
C	 0.7961675347	-0.7779486403	-0.9890061749	-0.112731
C	 1.7089913349	-1.4161291729	-0.0127278563	-0.05885
C	 0.7739512204	-0.9180427597	 1.1187679433	-0.125707
C	-0.2693930291	-1.9770085598	 0.6538928184	-0.044986
C	-1.2789490865	-0.8700837748	 0.2868048151	 0.075291
O	-1.9906924395	-0.3700197176	 1.4011620738	-0.441767
N	 0.5795448616	-2.2171636153	-0.5812786399	-0.162741
H	 0.9742446504	 1.9118770313	 0.1242647501	 0.117806
H	-0.5228966864	 1.8873144624	-0.819392177	 0.116783
H	-0.5981493271	 1.8621083896	 0.9500438718	 0.138502
H	 0.9187936883	-0.5687137211	-2.0450041521	 0.090294
H	 2.7446460342	-1.7267638544	-0.0765913187	 0.095098
H	 1.0078132307	-0.6233084309	 2.1368684262	 0.077401
H	-0.5450249474	-2.8899693819	 1.1819830445	 0.068927
H	-1.9316557373	-1.0438355612	-0.5807836001	 0.067311
H	-2.6330634693	-1.0337593021	 1.6713525555	 0.287859
190.9578	214.6479	226.331	275.077	305.7812	361.1435	515.9746	538.6947	612.8054	758.8484	771.1912	791.7967	808.4143	843.0803	876.3742	898.8794	920.7471	932.9367	953.0964	981.756	1008.2922	1034.0778	1079.1436	1110.4719	1124.2754	1146.2599	1163.2706	1195.8989	1208.8613	1225.6015	1228.0939	1264.8135	1284.2589	1316.8344	1346.8715	1411.0334	1417.792	1487.3645	1495.8471	3001.2361	3025.3103	3085.3872	3112.2269	3112.9722	3164.6596	3178.5107	3192.3528	3817.8385
CC12C3C4C1C(C2O)N34	C[C@@]12[C@H]3[C@H]4[C@@H]1[C@@H]([C@H]2O)N34	
InChI=1S/C7H9NO/c1-7-2-3-5(7)8(3)4(2)6(7)9/h2-6,9H,1H3	InChI=1S/C7H9NO/c1-7-2-3-5(7)8(3)4(2)6(7)9/h2-6,9H,1H3/t2-,3-,4+,5-,6-,7+,8?/m1/s1
