22
gdb 118180	2.41605	0.8686	0.7172	2.0569	80.51	-0.2549	0.0329	0.2878	1661.5517	0.191477	-441.499784	-441.488578	-441.487634	-441.53697	39.393	
C	-0.0783401231	 1.521176424	 0.0451601692	-0.408551
C	-0.0479586422	-0.0022718479	-0.0243334387	 0.136022
C	 0.7622384565	-0.5272225447	-1.2047452042	-0.176888
C	 0.7308833627	-2.0441999059	-1.3412412568	-0.081245
O	 1.478464061	-2.3860150783	-2.5001191506	-0.422212
O	 0.5795615455	-0.5367814244	 1.1694628921	-0.258721
C	-0.1710534492	-0.6773435982	 2.2804044908	 0.39844
C	 0.6686798978	-1.250133888	 3.3953906001	-0.460476
N	-1.4002661925	-0.3554334033	 2.3074460811	-0.521253
H	 0.9362769431	 1.9231729909	 0.1312934626	 0.116194
H	-0.534091312	 1.9293282266	-0.8623852567	 0.115923
H	-0.6682034434	 1.8488541348	 0.9030381838	 0.140837
H	-1.0730275681	-0.3849473501	-0.0566805008	 0.108666
H	 0.3653602247	-0.0848485146	-2.1253481014	 0.107602
H	 1.8036404156	-0.1974631978	-1.113608945	 0.109749
H	 1.1564082309	-2.5042070353	-0.4381308411	 0.094861
H	-0.3137525314	-2.3873802335	-1.4258469431	 0.083515
H	 1.5049522086	-3.3446958358	-2.5672362664	 0.284695
H	 1.5145868938	-0.5887150985	 3.6060193264	 0.146441
H	 0.0792574374	-1.3778304534	 4.3046982744	 0.124897
H	 1.0834220177	-2.2178011151	 3.0969106035	 0.143752
H	-1.7975708337	-0.5465081114	 3.2239520507	 0.217751
61.9934	73.683	84.135	117.3841	128.8652	187.1195	205.9624	238.1632	257.6393	320.5352	335.0524	435.3379	481.7202	499.8603	580.0015	617.9768	784.2137	843.7322	853.7527	918.9777	948.1457	979.4028	1016.0741	1045.4568	1065.4568	1067.1623	1108.6941	1113.0802	1148.1434	1177.971	1235.7936	1253.8411	1315.2036	1317.7553	1355.2083	1390.2487	1393.0129	1404.7955	1425.2551	1461.5573	1471.8039	1479.4696	1481.995	1488.6902	1505.0548	1531.811	1720.961	2963.7948	3015.0673	3039.5697	3044.2638	3048.3188	3064.6565	3088.3731	3111.6328	3112.52	3139.8217	3143.4641	3517.7392	3831.1236
CC(CCO)OC(C)=N	C[C@@H](CCO)O[C](C)[NH]	
InChI=1S/C6H13NO2/c1-5(3-4-8)9-6(2)7/h5,7-8H,3-4H2,1-2H3	InChI=1S/C6H13NO2/c1-5(3-4-8)9-6(2)7/h5,7-8H,3-4H2,1-2H3/t5-/m0/s1
