19
gdb 119441	4.65632	0.8679	0.81388	3.8332	77.94	-0.2409	-0.0095	0.2314	1455.2461	0.157217	-423.009605	-423.000589	-422.999644	-423.044167	33.212	
C	-0.0009774008	 1.531053059	 0.1494485086	-0.387635
C	-0.1260151612	 0.0186824972	 0.1431959969	-0.063846
O	 0.8682688188	-0.5126354917	 1.0206393651	-0.290753
C	 0.8506783218	-1.8792873048	 1.1164453989	 0.457622
C	-0.091617916	-2.6283369389	 1.9903643565	-0.339298
C	 1.414101726	-2.6901617315	 2.3016340307	-0.265739
C	 2.079185169	-3.6035067588	 1.3167704566	 0.436008
O	 2.875502895	-4.4930584735	 1.4132363785	-0.313931
C	 1.5026163775	-2.8334898513	 0.0947419296	-0.433145
H	 0.9922407188	 1.8361920215	-0.1913201364	 0.131563
H	-0.7482059757	 1.9751103391	-0.5147514599	 0.119595
H	-0.1537417426	 1.9252369599	 1.1580188141	 0.129572
H	-1.1236220817	-0.2977242729	 0.4819551264	 0.097578
H	 0.0204823178	-0.381152345	-0.8713905708	 0.09987
H	-0.634855682	-2.0212845205	 2.7076559589	 0.129956
H	-0.6216256557	-3.5117529414	 1.645242678	 0.122113
H	 1.7912152713	-2.3699060521	 3.264644199	 0.117683
H	 0.8522780616	-3.374273384	-0.5986620566	 0.115947
H	 2.3205353082	-2.3601818703	-0.4569435743	 0.13684
56.5461	72.8971	95.1941	185.3042	245.1451	321.9597	354.6693	396.1558	427.1031	478.3016	555.0887	626.3534	712.3497	780.8962	818.9914	846.7454	888.7365	926.0605	955.3317	982.8428	999.4216	1043.1303	1070.7407	1076.1651	1108.9963	1117.781	1143.7595	1185.7934	1199.5862	1236.0303	1258.675	1293.975	1369.8817	1404.7013	1432.7078	1453.4826	1483.4793	1496.9683	1499.6801	1526.8267	1886.2179	2985.8274	3018.9923	3047.0776	3055.178	3113.3132	3115.9858	3122.1967	3124.755	3201.7113	3210.5908
CCOC12CC1C(=O)C2	CCO[C@]12C[C@H]1C(=O)C2	
InChI=1S/C7H10O2/c1-2-9-7-3-5(7)6(8)4-7/h5H,2-4H2,1H3	InChI=1S/C7H10O2/c1-2-9-7-3-5(7)6(8)4-7/h5H,2-4H2,1H3/t5-,7-/m0/s1
