19
gdb 112549	3.06375	1.10909	0.9956	2.1333	72.93	-0.2332	-0.0347	0.1985	1277.2925	0.155499	-460.1543	-460.14418	-460.143235	-460.189353	36.088	
C	 0.4111867103	 1.5653131178	 0.5626762822	-0.250047
O	-0.2270751651	 0.3040016576	 0.4451960049	-0.238183
C	 0.5211665386	-0.7445172767	 0.9726495421	 0.039481
C	-0.1092946214	-2.1590295204	 0.8209857329	-0.325339
C	 1.28729203	-2.7612047076	 0.4165750905	 0.321606
C	 2.0274594921	-3.4057887739	 1.5863519527	-0.430059
O	 1.3402605683	-3.6152176088	-0.6968995762	-0.480438
C	 1.6772154677	-1.3029452437	 0.1114671654	 0.295059
O	 2.3364154588	-0.846618151	-0.7832937104	-0.321625
H	 1.3546998807	 1.590642201	 0.0051490396	 0.138567
H	-0.2745513301	 2.3068677875	 0.1475824643	 0.13213
H	 0.6109469119	 1.8142277368	 1.6164997775	 0.105262
H	 0.837767695	-0.5437883364	 2.0091732338	 0.087078
H	-0.5846280578	-2.5795141033	 1.7074641769	 0.113409
H	-0.7962328386	-2.1738383401	-0.0269164376	 0.132275
H	 1.5674904575	-4.3731770711	 1.8109014086	 0.136068
H	 3.0746681524	-3.5755054063	 1.3223325777	 0.133718
H	 1.9862784276	-2.7874871756	 2.4882122051	 0.116588
H	 1.6576637822	-3.0927944361	-1.44459042	 0.294453
72.4613	101.1171	152.9774	156.3865	175.8928	227.0346	233.8722	286.2845	307.0772	323.7217	378.1939	452.5198	558.1627	603.0538	741.5438	752.0859	822.357	904.0403	931.4989	981.2773	993.4656	1039.4203	1067.9948	1131.1462	1158.5996	1168.3672	1180.4625	1199.1141	1241.6116	1251.4538	1289.1802	1368.1668	1381.7661	1406.4625	1469.8268	1479.5568	1483.1688	1487.0958	1495.7747	1511.3636	1858.9569	2968.627	2986.2216	3039.7426	3065.6383	3085.0814	3113.2056	3122.7588	3127.4031	3153.1045	3770.0763
COC1CC(C)(O)C1=O	CO[C@H]1C[C@@](C)(O)C1=O	
InChI=1S/C6H10O3/c1-6(8)3-4(9-2)5(6)7/h4,8H,3H2,1-2H3	InChI=1S/C6H10O3/c1-6(8)3-4(9-2)5(6)7/h4,8H,3H2,1-2H3/t4-,6+/m0/s1
