17
gdb 94889	2.81145	1.72993	1.50596	0.8292	66.41	-0.2319	0.0441	0.276	927.7869	0.136073	-458.885561	-458.878196	-458.877251	-458.917141	29.277	
O	-0.0136272351	 1.3808045944	 0.5726490695	-0.424129
C	 0.012663804	 0.0679941234	 0.0378418627	 0.020422
C	 0.756030533	-0.846987988	 1.0571951623	-0.096154
O	-0.2483619694	-1.5256190136	 1.8447933856	-0.292332
C	-1.3904130355	-1.607696828	 1.0619247991	 0.260325
C	-2.3773550558	-0.46804578	 1.048865126	-0.370863
C	-1.3526076127	-0.5975730183	-0.0456329889	 0.269721
O	-1.7053572325	-1.5560344384	-1.0559272144	-0.327008
C	-1.6502584514	-2.6236750942	-0.0571305161	-0.151924
H	-0.598389258	 1.9107010913	 0.0206505052	 0.288275
H	 0.5075284054	 0.0388234589	-0.9421709075	 0.092524
H	 1.3690001293	-1.5847737385	 0.5224881206	 0.104305
H	 1.3933716928	-0.2703090976	 1.7315854964	 0.129496
H	-3.4218670733	-0.6470372361	 0.8128490279	 0.123544
H	-2.1736292323	 0.3059117169	 1.7792091754	 0.143165
H	-0.7971632182	-3.2873537017	-0.2347378331	 0.117705
H	-2.5778758802	-3.2050209205	-0.0237607309	 0.112929
106.6067	185.3726	291.701	311.7662	348.6364	380.0915	432.664	449.8647	570.0175	661.2498	702.5682	792.9839	823.7998	851.4652	884.051	913.8467	936.7651	969.0163	981.2783	994.1726	1031.2939	1062.154	1112.1868	1141.0248	1148.3225	1196.1544	1228.9443	1240.4062	1267.1428	1318.6552	1335.3248	1352.394	1389.5529	1398.8053	1458.1413	1501.0698	1510.1698	3009.5342	3025.5809	3032.0442	3087.4718	3112.0046	3130.064	3238.1122	3814.8119
OC1COC23CC12OC3	O[C@H]1CO[C@@]23C[C@@]12OC3	
InChI=1S/C6H8O3/c7-4-1-8-5-2-6(4,5)9-3-5/h4,7H,1-3H2	InChI=1S/C6H8O3/c7-4-1-8-5-2-6(4,5)9-3-5/h4,7H,1-3H2/t4-,5+,6+/m0/s1
