19
gdb 5301	4.25655	1.46925	1.20926	1.8453	77.98	-0.1937	0.0489	0.2426	1050.0784	0.16663	-327.973794	-327.965596	-327.964652	-328.006682	31.092	
C	 0.036276844	 1.5936940724	 0.1292167061	-0.385647
C	-0.0501811219	 0.0681840569	-0.0051306911	-0.088845
C	 0.8096593476	-0.6238025351	 1.0732805463	-0.374372
C	-1.4754514664	-0.410842241	 0.0305111052	 0.325407
C	-2.6484912352	 0.1999475606	 0.4224958436	-0.231497
C	-3.7077933245	-0.739987838	 0.2704819855	-0.144118
C	-3.1570553559	-1.9017215937	-0.2120020537	-0.09917
N	-1.8065291745	-1.6922415653	-0.3516374128	-0.297578
H	 1.0754892533	 1.9270640194	 0.049612265	 0.107795
H	-0.5469304925	 2.0953164237	-0.6479359948	 0.120739
H	-0.344278136	 1.9219254099	 1.1023829158	 0.121232
H	 0.3732069035	-0.2023740412	-0.9848039338	 0.073771
H	 0.7765304864	-1.7139448575	 0.9789834166	 0.102346
H	 1.8568331334	-0.3114264287	 0.9971789487	 0.108582
H	 0.4464599606	-0.3679204693	 2.0740592574	 0.122954
H	-2.7396144969	 1.2142478332	 0.7787543367	 0.086587
H	-4.7524331249	-0.5767143605	 0.48672452	 0.08827
H	-3.6023462016	-2.8490190931	-0.4704675291	 0.110549
H	-1.1518851984	-2.3709085828	-0.6999041218	 0.252992
37.3875	150.5385	204.5832	236.4451	268.9657	321.8473	401.104	461.7998	481.3745	621.6255	628.7134	690.4076	714.9242	794.7818	848.1172	875.9158	899.0003	928.3601	963.4587	968.8533	1055.4161	1087.5705	1117.3842	1127.9174	1141.3501	1179.6832	1238.6944	1281.9393	1339.5365	1362.6789	1395.9238	1417.8125	1439.8473	1453.553	1484.897	1491.9111	1499.3159	1500.5723	1514.2503	1612.5188	2977.5967	3027.6317	3036.4258	3096.7172	3101.0313	3106.0444	3114.4246	3241.075	3254.6396	3269.4774	3676.0863
CC(C)C1=CC=CN1	CC(C)c1ccc[nH]1	
InChI=1S/C7H11N/c1-6(2)7-4-3-5-8-7/h3-6,8H,1-2H3	InChI=1S/C7H11N/c1-6(2)7-4-3-5-8-7/h3-6,8H,1-2H3
