18
gdb 80712	2.55978	1.90497	1.50459	3.5052	75.62	-0.2303	-0.0117	0.2186	945.5799	0.150339	-401.980428	-401.973119	-401.972175	-402.012025	28.944	
C	-0.0395395313	 1.3694406532	-0.1625490771	-0.345887
N	-0.0088795111	-0.0248181079	 0.2116646185	-0.057955
C	-1.1826078607	-0.9207919529	 0.0825885081	-0.051257
C	-0.6521792399	-2.1264781558	 0.8889774806	-0.219995
C	 0.5943478763	-2.2521293769	-0.0278442798	-0.18248
C	-0.0986385779	-2.3087664564	-1.3967319228	-0.078754
C	-1.1772581316	-1.5237491938	-1.3362472273	-0.085166
C	 1.1267882375	-0.7958379998	 0.0566357655	 0.419318
O	 2.2672711374	-0.4028034378	-0.0432640096	-0.399392
H	 0.9821172302	 1.7503746336	-0.1050300096	 0.161313
H	-0.4087181377	 1.5104046739	-1.1891234739	 0.116627
H	-0.676198689	 1.9433010756	 0.5189451267	 0.121331
H	-2.0969589674	-0.4357330236	 0.4223751502	 0.076074
H	-0.4229037003	-1.8718246123	 1.9268705781	 0.110046
H	-1.3021858841	-3.0012130562	 0.8360564163	 0.108406
H	 1.346576212	-3.0074728031	 0.1841395859	 0.086756
H	 0.2947112482	-2.8435863715	-2.2504917008	 0.114242
H	-1.8767391507	-1.2825145883	-2.125060429	 0.106775
122.6112	166.8941	178.3885	279.2006	414.7	465.0337	470.2158	516.7662	652.7516	683.9924	717.7775	770.5412	832.5737	838.6503	883.1114	909.6616	936.0345	944.272	960.1013	973.0736	1013.9174	1074.6424	1120.9258	1152.0892	1158.941	1174.3834	1225.3333	1252.2411	1262.4259	1271.5313	1285.6703	1336.4965	1402.6131	1449.5974	1490.9454	1492.4427	1512.7601	1632.5499	1824.7039	2995.9261	3069.0618	3069.5457	3125.0978	3134.6203	3136.0635	3156.8923	3213.919	3239.3113
CN1C2CC(C=C2)C1=O	CN1[C@@H]2C[C@@H](C=C2)C1=O	
InChI=1S/C7H9NO/c1-8-6-3-2-5(4-6)7(8)9/h2-3,5-6H,4H2,1H3	InChI=1S/C7H9NO/c1-8-6-3-2-5(4-6)7(8)9/h2-3,5-6H,4H2,1H3/t5-,6+/m1/s1
