16
gdb 96722	2.38431	1.1937	0.80729	1.9123	70.59	-0.2534	-0.0836	0.1698	1356.5528	0.119775	-475.05792	-475.047861	-475.046917	-475.094331	33.728	
C	 0.1387528668	 1.3821833908	-0.908630453	-0.309845
N	 0.0089212893	-0.0153904055	-0.5337975181	-0.281967
C	-1.0295707545	-0.506454583	-0.0225449539	 0.327788
O	-1.0805613074	-1.8496290451	 0.3135308373	-0.222527
C	 0.0884299011	-2.5368899988	 0.5362434036	 0.173371
O	 0.0783538066	-3.7149792428	 0.7050275828	-0.253104
C	-2.3619593701	 0.1688425648	 0.2860931464	 0.314606
C	-3.4192497735	-0.6495769029	 0.9865913016	-0.475743
O	-2.5245593518	 1.3226006051	-0.0391270564	-0.286296
H	 1.1745387469	 1.560093192	-1.2067887277	 0.125436
H	-0.517953336	 1.6218095346	-1.7513463783	 0.148976
H	-0.1311603714	 2.0630524497	-0.0960857699	 0.144959
H	 0.9646219051	-1.8766392835	 0.5505464468	 0.130407
H	-3.6730314946	-1.5326511259	 0.3920610161	 0.16394
H	-3.0415004031	-1.0243623153	 1.9434154817	 0.155059
H	-4.3020516936	-0.0297686842	 1.1441576908	 0.144942
30.2731	82.4075	104.1618	143.7111	167.1929	172.274	231.2851	291.1526	339.4325	408.9109	417.8792	449.0028	535.7541	663.1144	687.1865	818.7034	970.9089	1036.2625	1040.5466	1051.7899	1096.2833	1101.7804	1114.5439	1199.7167	1255.3362	1386.722	1395.3006	1429.8009	1454.239	1464.9504	1477.7131	1496.9343	1730.8599	1806.4244	1870.8796	3035.7605	3048.9918	3075.1485	3100.6701	3111.8597	3117.6675	3161.7938
CN=C(OC=O)C(C)=O	CN=C(OC=O)C(=O)C	
InChI=1S/C5H7NO3/c1-4(8)5(6-2)9-3-7/h3H,1-2H3	InChI=1S/C5H7NO3/c1-4(8)5(6-2)9-3-7/h3H,1-2H3
