18
gdb 79512	3.34576	1.5772	1.2386	3.6868	76.99	-0.2259	0.0217	0.2476	1029.7883	0.149467	-401.934821	-401.927372	-401.926427	-401.96724	28.591	
C	-0.0190897566	 1.4194937974	-0.0700416169	-0.350345
N	-0.0144817125	-0.011629925	 0.0897928627	-0.083672
C	-1.1457509062	-0.9219575766	-0.008948236	 0.016088
C	-0.8217533387	-2.1749438342	 0.860938796	-0.05271
C	-1.5786635112	-3.0669226367	-0.1492439141	-0.255905
C	-0.7995064117	-2.0625582443	-1.0268506159	-0.060755
C	 0.447157432	-2.2060105835	-0.0705361068	-0.163143
C	 1.0963197117	-0.823187289	 0.0042506327	 0.404998
O	 2.2610279025	-0.4937698663	-0.0257420609	-0.39834
H	 1.0224112437	 1.7489765574	-0.0448273627	 0.162426
H	-0.4616746337	 1.7302236896	-1.0261852844	 0.120339
H	-0.5656661722	 1.9152273054	 0.7406773936	 0.12378
H	-2.1274085602	-0.4502289002	 0.0125700154	 0.086236
H	-0.8198357602	-2.2266225892	 1.9510089934	 0.082273
H	-1.2594189851	-4.1098004132	-0.206684955	 0.104272
H	-2.6703060139	-2.9885481064	-0.1575814333	 0.094057
H	-0.7721879936	-1.9894796445	-2.1155468565	 0.082182
H	 1.095010166	-3.0786010309	-0.115259571	 0.088217
51.4918	145.7493	194.8211	257.7452	350.156	401.9165	491.1951	576.8758	692.7477	703.5878	793.4723	829.317	844.0906	887.5173	891.9454	913.9422	962.5437	986.9074	1002.7162	1063.4342	1071.6079	1093.3933	1126.2324	1135.6448	1154.3839	1161.949	1186.7783	1218.479	1234.1419	1235.9963	1252.0964	1286.6169	1306.3064	1424.6147	1461.8591	1490.0732	1518.6189	1525.1598	1835.9571	3005.1902	3049.485	3058.2572	3099.8616	3102.8982	3116.5134	3127.8683	3133.0762	3153.0951
CN1C2C3CC2C3C1=O	CN1[C@@H]2[C@H]3C[C@@H]2[C@H]3C1=O	
InChI=1S/C7H9NO/c1-8-6-3-2-4(6)5(3)7(8)9/h3-6H,2H2,1H3	InChI=1S/C7H9NO/c1-8-6-3-2-4(6)5(3)7(8)9/h3-6H,2H2,1H3/t3-,4+,5-,6+
