18
gdb 47483	2.93671	1.37812	1.06147	2.5499	73.04	-0.2576	0.0252	0.2828	1135.0969	0.148852	-439.083394	-439.075607	-439.074663	-439.116158	30.131	
N	-0.2258835706	 0.8143727811	 0.9920235117	-0.515103
C	-0.0257691784	 0.0036229367	 0.0412447412	 0.385538
C	-1.1295367237	-0.4163196908	-0.8980385698	-0.365358
C	-1.1544903933	-1.9218401274	-1.139522303	 0.423413
C	-2.3574857342	-2.7148839581	-0.8625605923	-0.235704
O	-2.0258693937	-2.3269912213	-2.2008796872	-0.276753
C	 0.2272233808	-2.5662811803	-1.1091167788	-0.297801
C	 1.3057864509	-1.498774694	-1.2625247728	-0.097362
O	 1.2072193691	-0.530496999	-0.2076060264	-0.245848
H	 0.6485963274	 0.9886796504	 1.4926494371	 0.218431
H	-2.0767479926	-0.0408525973	-0.5131555794	 0.139476
H	-0.9557036443	 0.0663318676	-1.8697836159	 0.138686
H	-2.2666145084	-3.7800917612	-0.650193829	 0.11495
H	-3.2372380171	-2.2325286687	-0.4386306667	 0.120505
H	 0.3842838082	-3.080441201	-0.1540977651	 0.123579
H	 0.2986008708	-3.308904281	-1.9090763014	 0.126642
H	 2.3084638841	-1.9211973475	-1.1733981147	 0.125304
H	 1.2344733252	-0.9978048284	-2.2371007474	 0.117404
56.4882	109.547	272.1623	321.1945	349.3519	381.7626	413.7557	452.8728	493.9412	555.4638	628.1073	736.6582	820.685	832.5493	900.6391	915.9375	922.1824	943.446	992.9006	999.5909	1044.2209	1095.989	1128.6272	1130.1894	1163.7446	1192.8845	1232.1278	1254.303	1274.0932	1301.1201	1333.6613	1351.453	1420.1497	1427.3721	1464.1795	1469.174	1518.241	1530.9699	1757.7504	3019.4385	3026.0722	3044.4595	3077.8136	3101.7095	3113.0545	3142.2243	3164.9224	3459.2378
N=C1CC2(CO2)CCO1	[NH][C]1C[C@]2(CO2)CCO1	
InChI=1S/C6H9NO2/c7-5-3-6(4-9-6)1-2-8-5/h7H,1-4H2	InChI=1S/C6H9NO2/c7-5-3-6(4-9-6)1-2-8-5/h7H,1-4H2/t6-/m0/s1
