17
gdb 88724	3.48818	0.9958	0.84263	3.147	75.68	-0.2524	0.0237	0.2761	1347.8071	0.133319	-421.742144	-421.733195	-421.732251	-421.776342	33.324	
O	-0.1491778234	 1.4744471306	-0.0727116318	-0.414425
C	-0.045775275	 0.0805279222	-0.0573183077	 0.094969
C	-0.4151485728	-0.6682100537	 1.195272311	-0.337357
C	-1.3374759648	-0.6881395174	-0.013634814	-0.061823
C	-2.6330321644	 0.0423786122	 0.0476209575	 0.08087
O	-3.4341023171	 0.0463982553	-1.1342283707	-0.248364
C	-3.9383144874	-0.6587901473	 0.0133186207	-0.176741
C	-4.0441450997	-2.0906655353	-0.0776777442	 0.346412
C	-4.1603916293	-3.2862035934	-0.1298381937	-0.434719
H	 0.5770416286	 1.8325247632	 0.4481726617	 0.290932
H	 0.7490724724	-0.3271240495	-0.681241398	 0.09314
H	 0.1171059493	-1.5762242741	 1.4550162394	 0.11872
H	-0.7304518478	-0.0652226329	 2.0410475453	 0.117444
H	-1.3775658392	-1.6072822592	-0.5870310736	 0.109845
H	-2.6014952764	 0.9997242893	 0.5657850667	 0.106281
H	-4.7860908542	-0.1697879449	 0.4935772534	 0.113299
H	-4.2623979487	-4.3419987852	-0.183929282	 0.201516
47.3636	96.9679	155.4391	204.8413	239.2619	302.3368	328.5069	392.0628	457.8242	537.0802	554.5996	616.5733	641.5974	669.826	776.4286	794.9249	846.0043	850.2291	905.2883	986.103	1003.3991	1018.0988	1056.5696	1073.0068	1132.0524	1141.5432	1168.9688	1196.2129	1235.095	1279.9694	1291.7565	1322.448	1390.9237	1418.8655	1466.2704	1498.0718	2238.2275	3104.7247	3105.3109	3128.1929	3132.4968	3180.8523	3222.3886	3502.6339	3808.9595
OC1CC1C1OC1C#C	O[C@H]1C[C@H]1[C@H]1O[C@H]1C#C	
InChI=1S/C7H8O2/c1-2-6-7(9-6)4-3-5(4)8/h1,4-8H,3H2	InChI=1S/C7H8O2/c1-2-6-7(9-6)4-3-5(4)8/h1,4-8H,3H2/t4-,5+,6+,7-/m1/s1
