17
gdb 30699	4.16971	0.95628	0.87968	5.7289	70.38	-0.2297	0.0162	0.2459	1314.4595	0.137871	-455.175452	-455.167094	-455.16615	-455.209262	31.101	
O	 0.0786429256	 1.4225770823	-0.0424590402	-0.426602
C	 0.009210461	 0.0498304159	 0.2704605924	-0.057553
C	-1.3991607903	-0.4968964616	-0.0266069991	-0.017529
O	-1.7493884593	-0.1268814699	-1.3584144618	-0.44822
C	-1.473597548	-1.9851944736	 0.1399509972	 0.295155
C	-1.7975722148	-2.7590087559	 1.2224793196	-0.203164
N	-1.6527957972	-4.0626053676	 0.7955003269	-0.237122
C	-1.2610760741	-4.0241749051	-0.5062819252	 0.017789
N	-1.1396011185	-2.7881389945	-0.9315870174	-0.326776
H	-0.3645485782	 1.5006831589	-0.8982978176	 0.286244
H	 0.7415800506	-0.5415144972	-0.304853692	 0.084972
H	 0.2462349541	-0.0638738313	 1.3342822471	 0.097058
H	-2.1121514767	 0.0043963737	 0.6384090017	 0.08887
H	-1.4792003404	-0.8729646065	-1.9136230701	 0.296106
H	-2.1127001928	-2.5174470161	 2.2235984725	 0.139047
H	-1.823293673	-4.8891753681	 1.3435813396	 0.272387
H	-1.0859589581	-4.9176647135	-1.0862577736	 0.13934
42.0923	113.668	124.2979	239.4034	294.4928	367.8689	422.0543	443.1949	536.6302	539.1299	551.3309	660.9348	718.1636	750.0423	792.2634	822.3524	886.7207	952.5459	982.9192	1072.5561	1076.9136	1094.168	1097.383	1139.1438	1208.1749	1224.3587	1271.0189	1292.3755	1319.332	1365.4163	1382.0791	1433.1164	1440.5559	1465.6031	1502.7855	1528.0658	1603.0801	2964.774	3043.7021	3068.4164	3255.9387	3278.2305	3665.7802	3728.5224	3756.9368
OCC(O)C1=CNC=N1	OC[C@@H](O)c1c[nH]cn1	
InChI=1S/C5H8N2O2/c8-2-5(9)4-1-6-3-7-4/h1,3,5,8-9H,2H2,(H,6,7)	InChI=1S/C5H8N2O2/c8-2-5(9)4-1-6-3-7-4/h1,3,5,8-9H,2H2,(H,6,7)/t5-/m1/s1
