15
gdb 127653	3.65528	1.29639	0.96282	0.8658	72.14	-0.2177	-0.049	0.1687	1152.4948	0.112927	-450.154064	-450.145552	-450.144608	-450.188768	29.48	
C	 0.169003719	 1.3988698938	-0.0350769524	-0.32787
N	 0.1236921347	-0.042549973	 0.0196197185	-0.053487
N	 0.1673651955	-0.7996235014	-1.126904952	-0.228838
C	 0.1176602503	-2.0252095865	-0.7412577231	 0.049484
N	 0.042195985	-2.1276435566	 0.6476704001	-0.164456
C	-0.0238084384	-3.3138457774	 1.360935334	 0.175505
O	-0.0230455833	-4.4004900894	 0.8420386802	-0.292675
C	 0.0477990651	-0.8002990806	 1.1711547363	 0.466193
N	-0.0004923437	-0.3365730339	 2.3560956429	-0.599765
H	 1.1152147928	 1.7415865474	-0.4647941245	 0.142486
H	-0.658297051	 1.7847571406	-0.6373929298	 0.143734
H	 0.0797947137	 1.7604950345	 0.9896617214	 0.178195
H	 0.1297969618	-2.893221767	-1.3778361174	 0.182819
H	-0.076686581	-3.1471598396	 2.4497536144	 0.104697
H	-0.0564752607	-1.0534830108	 3.0712975114	 0.223979
21.4298	86.1969	162.6026	192.2828	201.3793	284.8475	311.7383	412.1808	546.784	636.0271	659.4897	708.9339	718.8232	784.1117	832.8716	853.5208	970.9557	1022.0605	1028.1976	1159.0072	1183.3587	1205.2017	1233.1674	1289.421	1384.6833	1428.0098	1436.0604	1453.4717	1486.1462	1513.2034	1631.5577	1746.6004	1815.0764	2998.9962	3044.0012	3106.4495	3161.7192	3300.6645	3558.0129
CN1N=CN(C=O)C1=N	CN1N=CN(C=O)[C@@H]1[NH]	
InChI=1S/C4H6N4O/c1-7-4(5)8(3-9)2-6-7/h2-3,5H,1H3	InChI=1S/C4H7N4O/c1-7-4(5)8(3-9)2-6-7/h2-5H,1H3/t4-/m1/s1
