18
gdb 99583	1.91248	1.30005	0.93493	4.0056	74.25	-0.2608	0.0055	0.2663	1293.5697	0.146956	-435.288277	-435.278061	-435.277116	-435.324242	35.156	
C	 0.2004316212	 1.4818464485	 0.0792456701	-0.364208
N	 0.0535325129	 0.0324948931	 0.0434472805	-0.040884
C	 0.0096894693	-0.6785978739	 1.217206352	 0.161378
O	 0.0356431383	-0.1931503096	 2.3245791583	-0.331008
C	-0.0104708752	-0.6574622332	-1.2339793537	-0.140032
C	-1.3012758848	-0.3468214051	-2.027639505	-0.163311
N	-2.4473166914	-0.7946958344	-1.247865402	-0.516789
C	 1.180481039	-0.3700224527	-2.0563368978	 0.288445
N	 2.098916013	-0.1273049028	-2.7137135634	-0.318407
H	 1.0761145974	 1.7937827027	-0.4987280099	 0.153423
H	-0.6844910191	 1.9876937702	-0.322723075	 0.127716
H	 0.3274089828	 1.7656793804	 1.1235780716	 0.177107
H	-0.0596324961	-1.7674996323	 1.0350698356	 0.09008
H	-0.0232786192	-1.7316213173	-1.0190240916	 0.14947
H	-1.3060340611	 0.7185179272	-2.306893288	 0.109231
H	-1.2626447103	-0.9182876981	-2.9602141791	 0.133124
H	-2.6163311191	-0.1661945276	-0.4690437978	 0.24254
H	-3.2852054977	-0.7862769753	-1.8188762747	 0.242125
45.5966	87.1182	117.6239	146.1025	151.5911	211.4439	236.2489	292.7338	325.1093	353.1398	378.7275	472.1921	504.2921	555.389	697.2289	838.9681	842.9814	938.0377	976.6054	1023.5809	1055.8577	1077.4274	1111.7565	1161.1066	1175.0267	1255.7568	1269.4463	1308.0816	1345.7924	1416.5959	1428.8698	1442.6704	1449.4532	1495.4884	1508.2552	1518.1154	1654.6799	1803.5975	2359.0136	2957.1674	2980.4745	3033.9499	3061.8162	3083.9319	3092.8332	3162.9924	3511.1571	3590.3599
CN(C=O)C(CN)C#N	CN(C=O)[C@@H](CN)C#N	
InChI=1S/C5H9N3O/c1-8(4-9)5(2-6)3-7/h4-5H,2,6H2,1H3	InChI=1S/C5H9N3O/c1-8(4-9)5(2-6)3-7/h4-5H,2,6H2,1H3/t5-/m0/s1
