23
gdb 120034	2.13704	1.24016	0.89473	1.3562	82.57	-0.2382	0.0704	0.3086	1415.3898	0.204085	-425.41447	-425.404113	-425.403168	-425.450232	38.116	
C	-0.0600261829	 1.482826778	-0.1651700885	-0.388163
C	-0.0051908469	-0.0350074317	-0.1540809704	-0.049591
O	-1.3258417369	-0.5299863083	 0.0435217088	-0.273488
C	-1.4100882934	-1.9427287979	 0.0749548831	 0.072884
C	-2.7758782248	-2.4113256546	 0.6545158547	 0.005485
C	-3.4960001835	-1.5111616326	 1.6468303464	-0.401915
C	-3.32259591	-2.5280826901	-0.7975573832	-0.282693
C	-1.8587823211	-2.4990129441	-1.3189175062	 0.143785
O	-1.5525045467	-1.7155322946	-2.4407997213	-0.436529
H	 0.9449608506	 1.8973211433	-0.288220574	 0.118707
H	-0.683669176	 1.845227353	-0.9880629581	 0.121314
H	-0.4798347582	 1.8588569587	 0.7721247392	 0.128298
H	 0.4077252479	-0.4198086308	-1.0969241416	 0.107739
H	 0.6445081174	-0.3922404785	 0.6608431725	 0.093081
H	-0.5038953477	-2.3651438818	 0.5282762892	 0.055786
H	-2.6415748809	-3.4104529524	 1.0835271541	 0.073072
H	-3.5651937184	-0.4897490872	 1.2646580803	 0.126781
H	-4.510018034	-1.8796303598	 1.8357748106	 0.110769
H	-2.9697560468	-1.4725115078	 2.6068127646	 0.111259
H	-3.9375904444	-3.3951174813	-1.049696022	 0.096736
H	-3.8556609083	-1.619991975	-1.0983903885	 0.098585
H	-1.465403758	-3.5011403101	-1.5107141538	 0.08586
H	-1.7581320269	-0.8072214645	-2.1850780559	 0.282239
62.1831	70.5584	101.3361	147.904	208.5443	226.4326	253.275	262.7518	351.7983	382.125	413.4487	468.6174	505.6404	589.5625	675.9182	772.6882	823.381	845.897	896.2213	907.9093	938.0162	957.7552	1008.859	1064.4089	1082.609	1097.1593	1137.9613	1150.594	1166.1612	1172.7992	1188.1291	1216.3114	1248.533	1268.078	1294.962	1298.4465	1323.4726	1361.3479	1367.8235	1402.5487	1406.8638	1437.4226	1440.4172	1481.6831	1483.6732	1491.2964	1500.3071	1500.6872	1530.2269	2976.7972	3011.4614	3025.6614	3033.2139	3043.2432	3045.5496	3050.9875	3075.3339	3094.458	3110.8813	3115.359	3121.5095	3122.763	3771.0615
CCOC1C(C)CC1O	CCO[C@H]1[C@@H](C)C[C@H]1O	
InChI=1S/C7H14O2/c1-3-9-7-5(2)4-6(7)8/h5-8H,3-4H2,1-2H3	InChI=1S/C7H14O2/c1-3-9-7-5(2)4-6(7)8/h5-8H,3-4H2,1-2H3/t5-,6+,7-/m0/s1
