15
gdb 15847	2.58128	2.13153	1.30634	3.8206	68.26	-0.2442	0.0254	0.2696	926.2977	0.117416	-362.653675	-362.645586	-362.644641	-362.686243	29.579	
C	-0.0650681926	 1.5679421622	-0.1184557466	-0.397479
C	 0.0252182045	 0.0571019107	 0.0029514028	 0.058136
N	 1.0591083402	-0.5843349671	-0.8206514247	-0.329473
C	 1.7850629624	-1.1306183185	 0.2018695095	 0.434254
O	 2.7757328943	-1.8023623651	 0.2461647621	-0.350977
C	 0.7749065456	-0.5446300629	 1.255220691	-0.367769
C	 1.3016869575	 0.3585469037	 2.2496674754	 0.355022
C	 1.7490273088	 1.1131541906	 3.0718465707	-0.465202
H	 0.9072278957	 2.0338507058	 0.0593519956	 0.137563
H	-0.412282243	 1.8509124867	-1.1177390604	 0.116292
H	-0.7762328147	 1.9663392976	 0.6113744862	 0.131629
H	-0.9612063444	-0.4006408102	-0.1356498069	 0.09169
H	 1.1677645572	-0.6638711112	-1.821281814	 0.252866
H	 0.2057221046	-1.3538787659	 1.7229731016	 0.13084
H	 2.1507137437	 1.7708541536	 3.8024471376	 0.202609
72.4882	126.0871	155.2281	226.8815	311.8526	368.576	396.3337	429.7277	513.8688	558.1643	614.3776	650.8902	693.9513	737.4223	805.0258	885.9114	906.3002	1021.3	1078.2066	1100.0998	1126.1095	1157.3416	1188.19	1277.4883	1323.0175	1386.2223	1392.0122	1416.7629	1486.8298	1492.9737	1907.6468	2237.0303	3033.8755	3041.6496	3069.4059	3109.1246	3130.8761	3502.9074	3607.5927
CC1NC(=O)C1C#C	C[C@H]1NC(=O)[C@H]1C#C	
InChI=1S/C6H7NO/c1-3-5-4(2)7-6(5)8/h1,4-5H,2H3,(H,7,8)	InChI=1S/C6H7NO/c1-3-5-4(2)7-6(5)8/h1,4-5H,2H3,(H,7,8)/t4-,5+/m1/s1
