23
gdb 102647	2.1259	1.04696	0.78094	3.2732	78.8	-0.2476	0.0642	0.3118	1546.3433	0.202832	-462.548609	-462.537246	-462.536301	-462.585603	40.73	
C	-0.1117300006	 1.2452645187	-0.1630494568	-0.239459
O	-0.0970967836	-0.1641775655	-0.2091741871	-0.259707
C	-1.3505956266	-0.7940094273	 0.0794931143	 0.089471
C	-1.2825511865	-2.1503890967	-0.623344269	-0.065268
O	-1.0992970573	-1.9771741122	-2.0169990158	-0.430127
C	-1.6377693264	-0.8429305277	 1.5887840583	-0.215313
C	-0.5771950512	-1.5458271938	 2.4395168729	 0.13706
C	-0.6938848556	-1.1851020157	 3.9213547789	-0.400227
O	-0.7596759895	-2.9511646776	 2.2480917238	-0.428887
H	 0.8753389642	 1.588993019	-0.4832401825	 0.127453
H	-0.8714497227	 1.6638369777	-0.8402935912	 0.111713
H	-0.3014783969	 1.6324971113	 0.848283767	 0.107293
H	-2.1508815573	-0.2141649866	-0.4083480294	 0.067831
H	-0.4859303978	-2.7583977307	-0.1777483929	 0.102782
H	-2.2255895595	-2.6869483022	-0.4825169732	 0.10577
H	-0.3386351415	-1.3895308441	-2.09822937	 0.281308
H	-1.7546205397	 0.1835647664	 1.9538872769	 0.095747
H	-2.6006545084	-1.3419392928	 1.7532376985	 0.110952
H	 0.4140585703	-1.2434956539	 2.0697410712	 0.080803
H	-1.6875135827	-1.4424069847	 4.3024820479	 0.123638
H	 0.048346491	-1.7328199434	 4.5134066594	 0.103743
H	-0.5229743849	-0.1157571856	 4.0838087101	 0.112607
H	-0.0430708268	-3.4084588626	 2.6991849888	 0.280819
44.6962	74.5919	104.7366	140.7992	165.9902	215.401	240.2	248.5134	279.1482	287.4487	317.4125	394.0659	426.2729	456.5495	470.8455	520.359	665.3836	791.3665	832.862	875.2215	932.6632	988.7754	1019.32	1066.239	1076.6206	1102.0823	1121.6967	1126.656	1148.112	1184.1111	1199.737	1224.7547	1261.2058	1286.1985	1311.6793	1353.8855	1377.428	1393.0785	1402.968	1408.3846	1429.2576	1442.4087	1463.1453	1481.2088	1494.1212	1494.5032	1495.5703	1500.4794	1511.9126	2972.4206	2984.5628	2993.8805	3026.6123	3032.3085	3037.9497	3040.3967	3076.5435	3093.6343	3094.9823	3109.7913	3109.9068	3791.1336	3818.9626
COC(CO)CC(C)O	CO[C@@H](CO)C[C@@H](C)O	
InChI=1S/C6H14O3/c1-5(8)3-6(4-7)9-2/h5-8H,3-4H2,1-2H3	InChI=1S/C6H14O3/c1-5(8)3-6(4-7)9-2/h5-8H,3-4H2,1-2H3/t5-,6-/m1/s1
