15
gdb 98937	4.24633	0.85883	0.71758	4.0767	73.24	-0.2614	-0.0408	0.2205	1503.0969	0.110526	-453.946424	-453.936705	-453.935761	-453.982403	33.05	
C	-0.1491439113	 1.2501301204	 0.2036793121	-0.237155
O	 0.0406287516	-0.1389694623	-0.0823907041	-0.277119
C	 0.6764884192	-0.387464866	-1.2571320456	 0.538348
O	 1.0646699017	 0.4492594361	-2.0226437699	-0.355862
N	 0.7787505891	-1.7657541638	-1.3805209492	-0.415107
C	 1.35531079	-2.4962021075	-2.4207245837	 0.253741
N	 1.88859997	-1.9532801609	-3.4428586782	-0.471357
C	 1.2722840387	-3.9188223419	-2.1955627236	 0.25542
C	 1.2161427978	-5.1092355267	-2.0321012216	-0.434566
H	 0.8117885575	 1.7664801061	 0.2705340898	 0.144174
H	-0.7512097396	 1.7268741966	-0.5738949004	 0.14436
H	-0.6676120965	 1.284846092	 1.1620045766	 0.133143
H	 0.3851848523	-2.2970090366	-0.6205381562	 0.27127
H	 2.2418269869	-2.6771156726	-4.0662536045	 0.234524
H	 1.1732363727	-6.1629033129	-1.8998958415	 0.216184
40.5162	75.634	89.0094	113.0506	168.4762	206.8011	278.5263	309.8186	398.0702	432.776	561.4621	606.2279	652.6388	668.8384	713.6977	734.0094	776.7242	871.6288	902.3919	984.3296	1053.7102	1162.5608	1183.3761	1209.778	1219.8614	1331.4807	1470.9239	1480.218	1500.0517	1548.0683	1688.5772	1861.1243	2227.7592	3051.9117	3126.729	3158.0992	3495.7504	3509.8067	3650.7765
COC(=O)NC(=N)C#C	COC(=O)NC(=N)C#C	
InChI=1S/C5H6N2O2/c1-3-4(6)7-5(8)9-2/h1H,2H3,(H2,6,7,8)	InChI=1S/C5H6N2O2/c1-3-4(6)7-5(8)9-2/h1H,2H3,(H2,6,7,8)
