14
gdb 13758	3.22512	1.92591	1.56024	3.8539	59.37	-0.2485	-0.0398	0.2087	834.7364	0.106228	-415.871967	-415.864029	-415.863085	-415.904706	28.002	
N	 0.0134023357	 1.1467487892	-0.0827830388	-0.536489
C	-0.0043900938	-0.2040141161	 0.1532191498	 0.446425
O	 0.9582439954	-0.9306011527	 0.0537205518	-0.376115
N	-1.2664671012	-0.6648503302	 0.5936635938	-0.123619
C	-2.498210347	-0.5670529445	-0.1525297683	-0.251128
C	-1.8351849369	-1.900923653	 0.0847275459	-0.087902
C	-1.2037293734	-2.5578304696	-1.1160695624	 0.158964
O	-0.9510907949	-1.9729441534	-2.1377937776	-0.248214
H	 0.9293027587	 1.5600217251	-0.1517040021	 0.2687
H	-0.7175998517	 1.7234203022	 0.2997557403	 0.261993
H	-3.3841790733	-0.3005439266	 0.4174068696	 0.127447
H	-2.4442308409	-0.2022137139	-1.1751449482	 0.157231
H	-2.2135606575	-2.5779532522	 0.8467114633	 0.108107
H	-1.0061019792	-3.6437594741	-1.002678457	 0.094599
60.2657	117.7987	136.8799	212.5614	286.0655	358.4897	390.492	461.03	523.4018	588.0113	708.1679	734.6776	781.1849	834.0646	945.6807	999.3173	1003.4796	1045.0927	1108.9731	1116.1408	1127.1483	1166.3019	1281.6823	1361.6229	1415.5585	1422.1537	1491.052	1616.8685	1808.4032	1830.4635	2919.8175	3106.4943	3143.5056	3206.2965	3597.2948	3722.1391
NC(=O)N1CC1C=O	NC(=O)N1C[C@H]1C=O	
InChI=1S/C4H6N2O2/c5-4(8)6-1-3(6)2-7/h2-3H,1H2,(H2,5,8)	InChI=1S/C4H6N2O2/c5-4(8)6-1-3(6)2-7/h2-3H,1H2,(H2,5,8)/t3-,6?/m0/s1
