18
gdb 32961	4.11374	0.83343	0.72514	1.6779	77.13	-0.1797	0.0384	0.218	1538.9734	0.147645	-439.108944	-439.099651	-439.098707	-439.143721	33.687	
N	 0.2206745961	 1.2489179348	-0.3871847656	-0.59563
C	-0.0488140618	-0.0859441068	-0.1099039728	 0.358799
C	-1.1829077184	-0.7770828287	 0.1932867986	-0.258704
C	-0.7855488875	-2.1581211505	 0.2522872789	-0.252226
C	 0.5443832385	-2.2105340644	-0.0061668084	 0.334917
C	 1.5498310906	-3.3010798641	-0.0905775642	-0.298739
C	 2.1018985195	-3.510130336	-1.5039797943	-0.067035
O	 3.0601391634	-4.5549759258	-1.4359996514	-0.420313
O	 1.0067410165	-0.9248578833	-0.2373568603	-0.212293
H	 1.141990948	 1.5310108335	-0.0752151623	 0.25365
H	-0.4836207318	 1.8690927854	-0.0116884436	 0.253828
H	-2.165277053	-0.3648435427	 0.3579951067	 0.092819
H	-1.4178990622	-3.0045863604	 0.4730440327	 0.101308
H	 2.3977802153	-3.1048733802	 0.5782043201	 0.116991
H	 1.084994971	-4.2316997115	 0.2490464417	 0.119112
H	 1.2741171009	-3.7623328362	-2.1848172274	 0.089785
H	 2.5511781644	-2.5720357869	-1.8626319552	 0.097837
H	 3.4271708406	-4.6834412762	-2.3152415133	 0.285894
59.2287	89.7302	100.8845	182.3155	248.6383	251.9375	291.1129	337.6963	370.5585	442.3156	632.8572	656.8147	670.6742	731.7586	753.2544	770.9118	794.0421	822.9005	964.9711	999.1222	1006.4956	1025.3534	1070.5299	1077.6629	1106.4436	1204.7468	1229.475	1242.6202	1256.7069	1298.2184	1312.7121	1342.4188	1440.8384	1453.559	1474.5135	1528.1256	1610.5444	1647.1641	1673.9382	2977.6171	3010.5889	3028.6483	3093.1482	3247.5461	3264.056	3539.194	3641.3721	3832.8278
NC1=CC=C(CCO)O1	Nc1ccc(CCO)o1	
InChI=1S/C6H9NO2/c7-6-2-1-5(9-6)3-4-8/h1-2,8H,3-4,7H2	InChI=1S/C6H9NO2/c7-6-2-1-5(9-6)3-4-8/h1-2,8H,3-4,7H2
