14
gdb 27717	2.94849	1.35508	0.9298	1.2826	78.7	-0.1794	0.0061	0.1855	1177.6911	0.101152	-432.877393	-432.868904	-432.86796	-432.91004	32.202	
N	 0.0681702683	 1.2892473328	 0.1583019311	-0.597045
C	-0.0355285427	-0.0663015468	 0.0424963643	 0.460151
N	-1.1380517873	-0.7630286662	-0.0160399471	-0.369537
C	-0.6942884298	-2.0702056812	-0.0517022775	 0.182102
N	-1.5889346177	-3.1061973062	-0.174784515	-0.604393
C	 0.6772543391	-2.1137159648	-0.0121084583	 0.126805
O	 1.1018485762	-0.765721133	 0.0450191675	-0.224957
C	 1.6107482325	-3.1442454236	-0.0210817631	 0.20234
C	 2.3918940039	-4.066851406	-0.0199316241	-0.420435
H	 0.9385784356	 1.6881608832	-0.1579942241	 0.270489
H	-0.7580756854	 1.7916769455	-0.1266260302	 0.274249
H	-2.5063097259	-2.8931645102	 0.1886318189	 0.258919
H	-1.2403743193	-4.0075060512	 0.1165978825	 0.259419
H	 3.0820534725	-4.8726681923	-0.0404065251	 0.181895
127.2918	130.5619	222.817	287.4163	323.6027	344.9341	355.6099	359.3822	416.7874	496.8614	533.7535	550.7242	586.4813	612.8406	667.3737	710.9523	724.8204	765.433	832.3154	1030.097	1048.8499	1131.4744	1145.3529	1293.2402	1410.7133	1471.9755	1593.552	1621.291	1669.6569	1686.1305	2203.4473	3504.9566	3569.6579	3589.5675	3677.7223	3703.1031
NC1=NC(N)=C(O1)C#C	Nc1nc(N)c(o1)C#C	
InChI=1S/C5H5N3O/c1-2-3-4(6)8-5(7)9-3/h1H,6H2,(H2,7,8)	InChI=1S/C5H5N3O/c1-2-3-4(6)8-5(7)9-3/h1H,6H2,(H2,7,8)
