23
gdb 92323	2.19076	1.63209	1.02831	0.2538	94.06	-0.2109	0.0311	0.2419	1254.0888	0.206326	-351.157215	-351.148157	-351.147212	-351.190611	35.287	
C	-0.1493875173	 1.4837407223	 0.2384320771	-0.408121
C	-0.0383234182	-0.0209262493	 0.0375605432	-0.059394
C	 1.0798100147	-0.5965485258	-0.9175855977	-0.259558
C	 1.3046004568	-1.7665296413	 0.1030123713	-0.028642
C	 2.6258060773	-2.1300393994	 0.8087152677	-0.240847
C	 2.2816369098	-1.9384372035	 2.3204468691	-0.282854
C	 1.1646729831	-0.8873068209	 2.3123191627	 0.135638
C	 0.8829136581	-0.0215934161	 3.4996352021	-0.49618
C	 0.6037843496	-0.8901208414	 1.1034584452	 0.218423
H	 0.8088558868	 1.9066269519	 0.5575600303	 0.114938
H	-0.4469724181	 1.981210963	-0.691319555	 0.112905
H	-0.897133588	 1.7318543747	 0.9994771443	 0.116702
H	-1.0093101311	-0.4294142162	-0.2724315657	 0.078205
H	 0.7760206919	-0.8578569157	-1.9349637414	 0.092085
H	 1.9420182924	 0.0765160784	-0.9561528941	 0.098119
H	 0.7303010701	-2.6527780841	-0.1964193713	 0.066795
H	 2.9953176244	-3.1341553999	 0.5796624187	 0.089212
H	 3.4101263426	-1.4183829656	 0.5258405299	 0.096462
H	 1.9515081726	-2.8814205662	 2.7808449518	 0.098621
H	 3.1477598371	-1.6027208293	 2.9039475716	 0.094208
H	 0.5470493707	-0.6208656866	 4.3566025212	 0.123125
H	 1.784881293	 0.50983872	 3.8308627231	 0.118794
H	 0.1074246215	 0.7193664008	 3.288755686	 0.121362
105.7826	133.2319	170.0975	182.4358	224.5459	279.6444	299.8003	380.8654	398.8674	491.5075	583.9481	601.1304	658.2102	681.9975	794.0229	832.2993	892.1103	906.5043	924.7571	939.8531	964.8926	1006.207	1023.322	1043.0053	1092.6441	1105.8461	1124.0935	1131.4784	1154.3986	1180.24	1202.7755	1219.5637	1246.9579	1256.2665	1262.0893	1301.0935	1325.5005	1336.1433	1371.7847	1405.6143	1412.6118	1475.8242	1477.8964	1483.3954	1488.7402	1494.2806	1496.2687	1498.0715	1762.7794	2997.1662	3010.4768	3011.5712	3015.8028	3027.2311	3033.4276	3045.8822	3048.9022	3051.5602	3087.7017	3092.6066	3099.8948	3107.9433	3111.2408
CC1CC2CCC(C)=C12	C[C@H]1C[C@H]2CC[C](C)[C]12	
InChI=1S/C9H14/c1-6-3-4-8-5-7(2)9(6)8/h7-8H,3-5H2,1-2H3	InChI=1S/C9H14/c1-6-3-4-8-5-7(2)9(6)8/h7-8H,3-5H2,1-2H3/t7-,8+/m0/s1
