15
gdb 51506	3.28216	1.10023	0.87612	1.0265	67.97	-0.2559	-0.0497	0.2062	1255.842	0.112033	-453.994037	-453.985814	-453.98487	-454.028283	28.601	
O	 0.1348441216	-0.1577059598	 0.2762201171	-0.220159
C	 0.0683883588	 0.9569582527	-0.1640312644	 0.151236
C	 1.1967039893	 1.9771461153	-0.0477968345	-0.267329
N	 1.2339761259	 2.9042474035	-1.1536303339	-0.113359
C	 1.6335750212	 2.6607139899	-2.4692676089	 0.068955
N	 1.6046538607	 3.6582014252	-3.2638529786	-0.247471
C	 1.1304197582	 4.7900347592	-2.4622617786	-0.293847
C	 0.8976358962	 4.2581524383	-1.046902153	 0.394016
O	 0.5241389502	 4.8083992888	-0.0402248102	-0.362412
H	-0.8382316866	 1.3392910878	-0.6854724954	 0.096446
H	 1.0092469346	 2.5840129134	 0.8485380698	 0.177079
H	 2.1475707125	 1.4519942324	 0.0835427008	 0.148068
H	 1.9465518521	 1.6604492246	-2.7531740222	 0.149545
H	 1.867061209	 5.6004348418	-2.4542599091	 0.159942
H	 0.2048474362	 5.2034287269	-2.8772769689	 0.159288
48.524	73.2542	110.1747	179.1116	258.6919	336.3514	415.9301	463.8945	524.0756	603.8754	668.8943	727.5245	784.1577	880.9832	926.3407	985.1606	992.9617	1043.2242	1044.5174	1093.6268	1181.866	1183.4347	1258.2527	1303.9114	1321.7498	1354.713	1399.4056	1411.4597	1434.9315	1447.6099	1680.1834	1839.1895	1845.2623	2884.781	3032.7402	3057.2852	3092.9508	3096.6046	3189.2859
O=CCN1C=NCC1=O	O=CCN1C=NCC1=O	
InChI=1S/C5H6N2O2/c8-2-1-7-4-6-3-5(7)9/h2,4H,1,3H2	InChI=1S/C5H6N2O2/c8-2-1-7-4-6-3-5(7)9/h2,4H,1,3H2
