12
gdb 43552	2.53337	1.53214	1.09476	2.3061	60.15	-0.3014	-0.0444	0.257	1035.0006	0.076465	-472.61568	-472.608202	-472.607258	-472.648193	26.495	
O	-0.0170449161	 0.073258504	-0.6455450502	-0.30332
C	 0.0410511762	 1.1480785356	-0.1585835044	 0.435843
O	-0.9698427717	 1.8622172711	 0.474431688	-0.256786
C	-0.1326201649	 3.0419534641	 0.6735336838	-0.086121
C	-0.0294085642	 3.4332677282	 2.0721905987	 0.2942
N	 0.0921618205	 3.7624373104	 3.1727128278	-0.303799
C	 1.0519234657	 2.2608843669	 0.0686400145	 0.210078
C	 2.4719657383	 2.2079480805	 0.415507991	-0.239387
O	 1.9976919064	 2.7395362461	-0.8327725006	-0.234921
H	-0.47932629	 3.8744427026	 0.0565760922	 0.166582
H	 2.8671368875	 2.939850677	 1.1163405926	 0.158049
H	 2.9962995124	 1.2581184135	 0.3468964066	 0.159583
91.0373	121.1344	224.1085	229.4583	252.2058	349.8046	438.9515	521.5862	617.1535	636.2208	731.1583	779.465	860.7653	913.7414	923.9397	1015.296	1034.5212	1066.3835	1123.8481	1163.9838	1174.4687	1231.7828	1353.9945	1436.6386	1526.9428	1969.1542	2366.1598	3096.5127	3105.6718	3208.0581
O=C1OC(C#N)C11CO1	O=C1O[C@@H](C#N)[C@]21CO2	
InChI=1S/C5H3NO3/c6-1-3-5(2-8-5)4(7)9-3/h3H,2H2	InChI=1S/C5H3NO3/c6-1-3-5(2-8-5)4(7)9-3/h3H,2H2/t3-,5-/m0/s1
