14
gdb 48237	2.85636	1.26178	0.90855	3.2341	68.51	-0.2726	-0.0866	0.186	1198.6204	0.099897	-470.028947	-470.020222	-470.019278	-470.063192	29.981	
N	-0.5756523009	 1.4575830822	-0.7483051569	-0.452278
C	-0.3914156288	 0.2161519783	-0.9082586486	 0.109689
N	-1.0391420494	-0.7333327266	-0.0859867635	-0.148929
C	-1.9521430897	-0.3269251737	 0.8898362112	 0.167086
O	-2.632179946	-1.1045179946	 1.5172630916	-0.306969
C	-0.8821365284	-2.1122678081	-0.3642820147	 0.282645
N	-0.54920479	-2.4956601458	-1.5254194499	-0.469086
C	-1.0053909446	-3.0867021364	 0.8023295755	 0.119062
O	-1.154314278	-4.2607768973	 0.5866763524	-0.246335
H	-0.0124779656	 1.9885484068	-1.4091559888	 0.246616
H	 0.2473505277	-0.2706149412	-1.6452912148	 0.154201
H	-1.9769907248	 0.763510792	 1.0007402681	 0.160705
H	-0.4489596718	-3.5144504293	-1.5114333957	 0.257019
H	-0.8679560796	-2.6774090763	 1.814778124	 0.126573
58.2186	95.5115	119.6893	209.0811	233.1319	267.6196	295.5256	359.9759	415.046	462.5687	554.742	705.4363	729.3945	826.4523	871.4234	927.5328	997.0396	1015.5584	1055.5446	1079.0182	1145.2258	1210.5903	1333.361	1355.7162	1408.9577	1416.2229	1447.4028	1704.5999	1729.5746	1793.1811	1815.3461	3018.8568	3086.7823	3137.2373	3450.6406	3517.4896
N=CN(C=O)C(=N)C=O	N=CN(C=O)C(=N)C=O	
InChI=1S/C4H5N3O2/c5-2-7(3-9)4(6)1-8/h1-3,5-6H	InChI=1S/C4H5N3O2/c5-2-7(3-9)4(6)1-8/h1-3,5-6H
