19
gdb 107098	4.89236	0.86221	0.8306	3.6253	76.97	-0.2389	-0.0238	0.2151	1433.9359	0.157034	-423.003624	-422.994511	-422.993567	-423.038145	33.123	
C	 0.2234534995	 1.5356771047	 0.1484329596	-0.381196
C	-0.0940077484	 0.0427005779	-0.0185675558	-0.302966
C	 0.4472622477	-0.5178317412	-1.2957849148	 0.444735
C	-0.0190037765	-0.2531845449	-2.7415590939	-0.325693
C	 0.5163071244	-1.6848694678	-3.1389812791	-0.100731
C	 1.6048698675	-1.7470202831	-4.1775854341	 0.155288
O	 1.5291498072	-2.3707133674	-5.2071642042	-0.257445
C	 0.9732015697	-1.8424675498	-1.6696275139	-0.085289
O	 1.864095666	-0.7576963604	-1.3826067123	-0.285352
H	 1.3043319502	 1.7030308929	 0.1433762982	 0.137326
H	-0.2136359833	 2.1287504161	-0.661591889	 0.121282
H	-0.1769348669	 1.9143302035	 1.0929350293	 0.118847
H	 0.3311886976	-0.5269020432	 0.8150763657	 0.115377
H	-1.1794483765	-0.1150705553	 0.0046862177	 0.106291
H	-1.1027629142	-0.1858289167	-2.8571108832	 0.119588
H	 0.4553063974	 0.601113256	-3.2309947806	 0.118179
H	-0.291291133	-2.3658374251	-3.4139286046	 0.09781
H	 2.5111991073	-1.1576652664	-3.9212540766	 0.093335
H	 1.1010043544	-2.7562254197	-1.0999705882	 0.110616
65.776	76.5534	103.5915	176.9323	218.2652	269.445	333.0784	362.7433	408.9818	463.1809	566.3768	660.6481	737.5418	784.3406	833.0051	880.7504	899.4396	937.1611	942.0295	980.6093	1015.7822	1056.5529	1070.4808	1078.0095	1130.9283	1167.8871	1200.5284	1212.4425	1239.5946	1260.1689	1289.4973	1320.4743	1350.8617	1409.4605	1418.2837	1453.4509	1471.7261	1483.2974	1499.2365	1510.7733	1821.8637	2909.2707	3031.1582	3040.9955	3067.6331	3073.2195	3102.5924	3110.7231	3120.7564	3128.5335	3183.1083
CCC12CC(C=O)C1O2	CC[C@]12C[C@@H](C=O)[C@H]1O2	
InChI=1S/C7H10O2/c1-2-7-3-5(4-8)6(7)9-7/h4-6H,2-3H2,1H3	InChI=1S/C7H10O2/c1-2-7-3-5(4-8)6(7)9-7/h4-6H,2-3H2,1H3/t5-,6+,7-/m0/s1
