19
gdb 32978	3.16218	1.03765	0.83529	2.507	78.27	-0.2143	0.03	0.2443	1380.3299	0.160131	-419.241419	-419.232025	-419.231081	-419.276945	33.158	
C	 0.0553062103	 1.4486294266	 0.0127363541	-0.346052
N	 0.0055040597	-0.0006130676	 0.0208789494	-0.026779
C	-0.0154517231	-0.8006664631	-1.1033905818	-0.132998
C	-0.0161573994	-2.0884557849	-0.6432444253	-0.100787
N	 0.0044795626	-2.1069171722	 0.729491418	-0.31029
C	 0.0180783358	-0.8424869489	 1.1060014225	 0.32075
C	 0.0856344198	-0.3860825877	 2.5277514606	-0.328051
C	 1.5193470872	-0.0754138311	 2.9964428619	-0.059313
O	 1.5630682322	 0.3751489424	 4.338586678	-0.41497
H	 1.0798924489	 1.8174008806	-0.1078712939	 0.143709
H	-0.5529395517	 1.832327438	-0.8099178394	 0.14439
H	-0.3471807288	 1.8410564393	 0.9478076393	 0.150526
H	-0.0366632293	-0.3760490208	-2.0938594071	 0.120046
H	-0.0403891105	-3.000641992	-1.2200110529	 0.104538
H	-0.5380031127	 0.4975292696	 2.7050704511	 0.109941
H	-0.3216197333	-1.1977964526	 3.1390800773	 0.123685
H	 2.1506525183	-0.961784492	 2.8381855103	 0.109551
H	 1.9458083136	 0.7370482598	 2.3977785814	 0.107227
H	 1.3007912005	-0.3585004536	 4.9039057166	 0.284878
46.9817	62.4532	97.3341	113.97	194.4737	288.3652	315.3373	347.5564	370.211	426.3099	637.5449	670.5745	711.5783	732.2061	771.919	806.3534	849.1838	931.076	1008.7543	1034.2981	1058.7619	1074.5959	1107.7833	1135.2787	1148.1952	1191.9259	1223.5965	1292.934	1309.0785	1312.6996	1386.4856	1391.565	1416.0381	1441.5664	1475.8895	1478.741	1491.069	1507.2484	1513.7717	1526.735	1565.4044	3002.5857	3038.0464	3041.634	3064.7364	3095.6909	3106.261	3142.6633	3244.1656	3272.1974	3815.6865
CN1C=CN=C1CCO	Cn1ccnc1CCO	
InChI=1S/C6H10N2O/c1-8-4-3-7-6(8)2-5-9/h3-4,9H,2,5H2,1H3	InChI=1S/C6H10N2O/c1-8-4-3-7-6(8)2-5-9/h3-4,9H,2,5H2,1H3
