16
gdb 78798	2.17788	1.89222	1.65598	0.9931	69.26	-0.2366	0.0108	0.2474	917.3373	0.124997	-433.994042	-433.986317	-433.985373	-434.025864	30.355	
N	-0.1281090756	 1.5381725114	 0.0002556215	-0.534994
C	-0.0390128918	 0.1025417442	-0.0740752045	-0.005177
C	-1.3232228866	-0.7323097447	-0.1118016473	-0.051856
C	-0.7297802184	-1.7748187604	-0.9532921662	-0.140972
N	-1.7995535117	-0.8723861806	-1.5478080866	-0.202423
C	-0.7437669643	-0.2587493286	-2.33544179	 0.3339
N	-0.7081914212	 0.2017103917	-3.504841686	-0.57592
C	 0.350307511	-0.6524477278	-1.389696401	 0.289588
O	 1.6605390428	-0.7391266118	-1.7673216096	-0.470142
H	 0.7980553396	 1.9519419163	 0.0280030987	 0.239985
H	-0.6001167839	 1.9189091543	-0.8149435668	 0.238775
H	 0.5935882378	-0.2625100413	 0.7412147604	 0.101929
H	-2.0999981096	-0.8075263364	 0.6373506511	 0.115601
H	-0.7862702228	-2.8519063675	-1.0015366281	 0.124885
H	-1.6429538572	 0.2278636709	-3.919000101	 0.232617
H	 1.688593092	-0.7557732597	-2.7332028146	 0.304204
122.9784	196.3693	214.8214	251.7197	284.3195	379.684	413.5669	465.9426	591.213	654.8254	664.6217	699.1822	762.0653	816.8283	821.4011	857.0059	862.7699	898.2954	921.1247	957.1991	971.0733	1003.9388	1046.1257	1117.9398	1135.8021	1188.8272	1226.2272	1237.3176	1265.6121	1324.2246	1372.5921	1405.3738	1444.6426	1663.4063	1809.1495	3071.9994	3210.2801	3239.7384	3455.0456	3497.4728	3579.8577	3764.7654
NC1C2C3N2C(=N)C13O	N[C@H]1[C@@H]2[C@H]3N2[C]([NH])[C@@]13O	
InChI=1S/C5H7N3O/c6-2-1-3-5(2,9)4(7)8(1)3/h1-3,7,9H,6H2	InChI=1S/C5H7N3O/c6-2-1-3-5(2,9)4(7)8(1)3/h1-3,7,9H,6H2/t1-,2+,3-,5-,8?/m1/s1
