18
gdb 31002	2.45185	1.25686	0.86739	0.3857	78.15	-0.1763	0.0376	0.2139	1326.6595	0.14685	-439.111673	-439.102054	-439.10111	-439.146455	34.698	
C	 0.1026817472	 1.4360394473	 0.1624083071	-0.494975
C	-0.0841195438	-0.028363197	-0.0001277664	 0.23675
C	-1.1577680327	-0.8509429316	-0.1343753412	 0.230384
C	-2.5998164938	-0.4714616775	-0.1796452342	-0.213095
O	-3.2994842398	-1.1969107973	 0.830861488	-0.416609
C	-0.6440356923	-2.1956996998	-0.2417540131	-0.362534
C	 0.7078639705	-2.0805905214	-0.1707771233	 0.365911
N	 1.7622625641	-2.9787495695	-0.2865480845	-0.595926
O	 1.0738775342	-0.7815545083	-0.0318497993	-0.213617
H	 0.6790077532	 1.6683217665	 1.065946234	 0.132535
H	 0.6369230868	 1.8796782006	-0.6870089719	 0.131916
H	-0.8669501036	 1.931996958	 0.2448559213	 0.132519
H	-2.7091759347	 0.6146208997	-0.0375618052	 0.085777
H	-3.0157497837	-0.7089125724	-1.1727943204	 0.092246
H	-4.2404630367	-1.043780242	 0.699742761	 0.283571
H	-1.2196310613	-3.1028428465	-0.3272273192	 0.098876
H	 1.4763867598	-3.9300055946	-0.0987564108	 0.253717
H	 2.5503333066	-2.7263052445	 0.2975360683	 0.252556
51.5332	128.0412	139.5919	184.679	202.4712	234.8658	267.0823	277.893	323.1701	420.4091	504.5705	600.0424	637.1323	649.829	686.7523	733.1231	755.894	817.2863	956.329	998.6812	1029.8082	1047.1558	1062.8315	1103.5212	1145.5895	1188.8045	1230.2916	1243.629	1280.239	1350.6847	1415.5657	1445.1834	1469.4518	1470.5028	1492.8984	1513.7929	1617.8132	1666.696	1691.0791	2959.3902	2994.2402	3020.4238	3065.3295	3126.0126	3265.0174	3537.6746	3639.6491	3817.0071
CC1=C(CO)C=C(N)O1	Cc1c(CO)cc(N)o1	
InChI=1S/C6H9NO2/c1-4-5(3-8)2-6(7)9-4/h2,8H,3,7H2,1H3	InChI=1S/C6H9NO2/c1-4-5(3-8)2-6(7)9-4/h2,8H,3,7H2,1H3
