17
gdb 117475	6.27132	0.62985	0.58685	6.5813	68.48	-0.2673	-0.0378	0.2296	1832.0315	0.131675	-496.109549	-496.099429	-496.098484	-496.146302	33.444	
C	 0.0030413128	 1.1666436938	-0.1822941775	-0.230031
O	-0.1434390315	-0.2321854282	-0.2998457395	-0.209263
C	-1.3631081916	-0.6929490801	 0.1829909403	-0.155807
C	-1.4332795327	-2.209180919	 0.0843995716	 0.349907
O	-0.4903386629	-2.9120220824	-0.1638176948	-0.260041
C	-2.8312067925	-2.8018172915	 0.3080725923	-0.208781
O	-2.7743071608	-4.1510378764	 0.7232441411	-0.16586
C	-2.4338664213	-5.0709519198	-0.2149073698	 0.189911
O	-2.2838735825	-6.2212229129	 0.0554939062	-0.269449
H	 0.9861292194	 1.4198311044	-0.5836718346	 0.141943
H	-0.7673781879	 1.7071656452	-0.7538804866	 0.109126
H	-0.0509722169	 1.4939865993	 0.8674106448	 0.111735
H	-1.5185868468	-0.4274351056	 1.2472090779	 0.119257
H	-2.2225222951	-0.2581944193	-0.3633952123	 0.106686
H	-3.3743059719	-2.2562151282	 1.0845559485	 0.144918
H	-3.3993405629	-2.6886642854	-0.6283292725	 0.139836
H	-2.351443595	-4.642114494	-1.229573655	 0.085914
39.7923	70.8773	79.9126	99.6276	164.8501	187.1275	233.3254	289.031	307.8702	365.3644	394.1094	460.642	640.1319	736.6528	825.1055	911.0616	978.4738	1027.1099	1041.0626	1081.4119	1092.5463	1175.1749	1178.8157	1185.9503	1241.9187	1255.6269	1297.012	1380.3772	1412.4362	1429.0896	1465.9198	1473.0611	1487.5091	1490.5987	1515.1886	1844.0361	1878.1537	2920.0101	2936.6796	2976.0206	2978.4258	3000.0487	3023.5191	3098.7698	3128.4166
COCC(=O)COC=O	COCC(=O)COC=O	
InChI=1S/C5H8O4/c1-8-2-5(7)3-9-4-6/h4H,2-3H2,1H3	InChI=1S/C5H8O4/c1-8-2-5(7)3-9-4-6/h4H,2-3H2,1H3
