19
gdb 102708	2.76587	0.85067	0.76669	3.0116	68.89	-0.2602	-0.0315	0.2287	1522.4332	0.156298	-497.281992	-497.271746	-497.270802	-497.318594	35.475	
O	 0.2263560692	 1.1366204188	-0.3155052115	-0.423295
C	 0.0247615898	-0.1983134178	 0.0908177939	-0.085647
C	-1.4585349792	-0.6045175882	 0.1399700687	 0.088497
C	-2.2206572626	 0.1126595918	 1.2556696801	-0.083908
O	-2.2262509772	 1.5239397631	 1.0504952686	-0.420987
O	-2.1804992205	-0.2679933749	-1.0412572749	-0.279205
C	-1.6051341589	-0.656985951	-2.2673395484	-0.15933
C	-2.6252704521	-0.3939699677	-3.3615954852	 0.143606
O	-2.4539220361	-0.6830566777	-4.5149902867	-0.235623
H	-0.3707127794	 1.6752815066	 0.2235009307	 0.288524
H	 0.5680114471	-0.8296992059	-0.6202563472	 0.111186
H	 0.4549379401	-0.4052835064	 1.0856542016	 0.091693
H	-1.5068335248	-1.6935937985	 0.3164630529	 0.072611
H	-3.2468935009	-0.275920599	 1.3068079363	 0.10848
H	-1.7376321466	-0.0652571084	 2.2205382939	 0.120025
H	-2.6326881855	 1.6551778221	 0.1843497174	 0.297637
H	-0.6944786194	-0.0829149375	-2.4897965601	 0.15335
H	-1.3452572407	-1.7273551769	-2.28242393	 0.123299
H	-3.5544126221	 0.0988189873	-2.9972471001	 0.089088
48.9294	62.9578	97.4525	107.4882	163.2665	176.6909	259.8187	287.9772	321.3701	399.8541	409.1467	509.0035	573.7297	664.8413	751.1891	789.2298	806.2419	915.3008	962.1323	977.5903	1040.3181	1078.5967	1092.7954	1113.9727	1124.9821	1163.3025	1221.8497	1233.7286	1251.16	1328.6587	1335.7553	1375.7463	1393.4103	1399.2206	1416.6838	1428.3643	1466.0205	1478.6072	1496.6073	1514.2901	1847.0304	2889.1057	2953.0006	2966.8152	2985.1212	3016.9823	3034.7306	3067.2529	3099.6263	3723.1163	3785.8
OCC(CO)OCC=O	OCC(CO)OCC=O	
InChI=1S/C5H10O4/c6-1-2-9-5(3-7)4-8/h1,5,7-8H,2-4H2	InChI=1S/C5H10O4/c6-1-2-9-5(3-7)4-8/h1,5,7-8H,2-4H2
