19
gdb 94636	3.75082	0.78851	0.69769	2.8214	76.6	-0.2505	0.0156	0.2661	1589.1838	0.158683	-419.185236	-419.175622	-419.174678	-419.221458	33.524	
C	-0.1877687364	 1.549564714	-0.0629978013	-0.403391
C	 0.0834251825	 0.0567941579	-0.0586866739	 0.123225
O	 1.2975481234	-0.2911522538	-0.7695256733	-0.286758
C	 1.9040158016	-0.8627637451	 0.4030374507	-0.094674
C	 0.6200796192	-0.6055390529	 1.2410882612	-0.019916
N	 0.6524421395	 0.216501002	 2.4301828402	-0.296804
C	 1.2075237599	-0.466798747	 3.593645626	-0.269072
C	 1.1952454223	 0.4067430587	 4.7707213605	 0.257081
N	 1.2082906139	 1.1012466519	 5.6932858519	-0.293988
H	 0.6685143226	 2.1199326618	 0.3108133979	 0.114181
H	-0.382354327	 1.8820010611	-1.086920385	 0.132416
H	-1.061739831	 1.7854970761	 0.5514170905	 0.132885
H	-0.7762186716	-0.4751694339	-0.4868335316	 0.083465
H	 2.1925511978	-1.9100027816	 0.2504062567	 0.104042
H	 2.7874103192	-0.2957471363	 0.7323098075	 0.092155
H	 0.08792052	-1.5284691726	 1.4902831533	 0.092744
H	 1.1619225334	 1.0779151415	 2.2641899609	 0.234648
H	 0.589947722	-1.3474276903	 3.8106036217	 0.159357
H	 2.2404600386	-0.8350586114	 3.4597840961	 0.138405
33.4878	66.7457	84.9464	102.1753	197.7304	236.9051	278.73	382.2091	399.1551	417.5912	464.5527	585.4369	738.4515	772.1087	841.6255	873.8386	910.4419	964.6382	989.7413	1019.4965	1034.5025	1045.8985	1086.9735	1119.1936	1157.1335	1169.2382	1204.0136	1253.7221	1258.6559	1288.3103	1340.1223	1354.6509	1385.9634	1403.0385	1412.6883	1479.3097	1489.2493	1494.9477	1514.6328	1521.3774	2369.5015	2944.8396	2989.5556	3014.7809	3039.8118	3042.7223	3048.5802	3067.5441	3110.4227	3120.7692	3531.7055
CC1OCC1NCC#N	C[C@H]1OC[C@H]1NCC#N	
InChI=1S/C6H10N2O/c1-5-6(4-9-5)8-3-2-7/h5-6,8H,3-4H2,1H3	InChI=1S/C6H10N2O/c1-5-6(4-9-5)8-3-2-7/h5-6,8H,3-4H2,1H3/t5-,6-/m1/s1
