18
gdb 106852	2.57747	1.31744	1.01172	4.3577	78.19	-0.2695	-0.0003	0.2692	1220.7378	0.146448	-401.935612	-401.926768	-401.925823	-401.969512	32.581	
C	 0.2475662476	 1.4717541241	 0.2129855423	-0.383243
C	-0.1940988835	 0.0303181081	-0.0809144667	-0.294154
C	 0.4195906412	-0.5041766421	-1.3359962054	 0.335616
C	 0.093008296	-0.1664949774	-2.8049161273	-0.283787
C	 0.5447556676	-1.6119220166	-3.2080501993	-0.299724
C	 0.8604714525	-1.8721089192	-1.7268510236	 0.237599
O	 1.804387479	-0.8745727577	-1.3095794367	-0.304984
C	 0.8192280434	-3.1073319906	-1.0086385765	 0.212091
N	 0.7551543867	-4.1198796092	-0.4527642372	-0.343694
H	 1.3338732677	 1.5272507428	 0.3269162797	 0.139755
H	-0.0436912677	 2.1515018836	-0.5943786655	 0.122245
H	-0.2118365965	 1.8332657563	 1.1368214897	 0.123754
H	 0.0873934225	-0.6274404728	 0.7481704812	 0.128301
H	-1.2854470238	-0.0178994927	-0.1757024784	 0.112679
H	-0.9716338151	 0.0029078438	-2.9794056776	 0.11795
H	 0.6709945225	 0.6609282086	-3.2204941679	 0.122645
H	-0.2770924231	-2.2243258368	-3.5825387294	 0.129692
H	 1.406405793	-1.6985030923	-3.8721099414	 0.127259
64.0846	101.4964	161.3314	185.6927	212.5698	272.585	337.1339	401.3083	464.3145	545.8632	569.339	620.3664	690.8492	730.3467	773.384	788.8178	893.1777	936.5079	951.8706	975.8454	1022.7277	1082.829	1089.7536	1142.3435	1182.389	1205.2552	1217.9302	1229.0888	1284.8734	1316.7012	1352.0753	1408.6861	1447.1912	1464.5162	1473.2246	1493.6999	1498.7819	1509.8833	2352.7807	3037.6198	3042.3427	3074.6342	3080.6278	3083.5665	3113.0652	3123.1701	3129.435	3147.0363
CCC12CCC1(O2)C#N	CC[C@]12CC[C@]1(O2)C#N	
InChI=1S/C7H9NO/c1-2-6-3-4-7(6,5-8)9-6/h2-4H2,1H3	InChI=1S/C7H9NO/c1-2-6-3-4-7(6,5-8)9-6/h2-4H2,1H3/t6-,7-/m0/s1
