18
gdb 50230	2.95231	1.55204	1.34522	2.4532	74.63	-0.2299	-0.0269	0.203	998.0003	0.148178	-401.877795	-401.870397	-401.869453	-401.909792	28.991	
O	-0.7369096942	 0.8174082779	-0.9070529529	-0.252748
C	 0.143123845	 0.8973776508	-0.0852427326	 0.152658
C	 1.2009791853	 1.9634914355	-0.0529293921	-0.095154
C	 1.1502836214	 3.1736565591	-1.03208435	-0.286975
C	 1.3285173331	 4.1411891263	 0.1780174437	-0.030343
C	 0.0697236907	 4.6688265854	 0.887198253	-0.026113
C	-1.0457147914	 3.7117539854	 0.8882181245	-0.265718
N	 0.0447844307	 3.48878399	 1.8662438633	-0.156373
C	 1.2792596305	 2.9562931556	 1.1651916089	-0.003445
H	 0.230794866	 0.1454671341	 0.7323101502	 0.083656
H	 2.1629351398	 1.4360447352	-0.1039706233	 0.104451
H	 1.9767101009	 3.1963678552	-1.7448474522	 0.108693
H	 0.2142555491	 3.267486727	-1.5857899153	 0.127678
H	 2.1734550037	 4.8270485383	 0.153138008	 0.079776
H	-0.0423677039	 5.687864997	 1.2448975828	 0.097367
H	-1.9576730063	 4.0254118786	 1.3882865666	 0.125123
H	-1.2122533464	 3.0279844118	 0.0651644368	 0.149754
H	 2.0535634062	 2.7600717767	 1.9062008306	 0.087714
85.6751	157.2505	186.73	270.621	336.0609	417.0727	559.5066	582.2944	673.6055	704.0025	713.7586	753.3299	852.4802	870.855	886.1522	911.1461	941.6911	957.9155	1018.1721	1028.19	1057.7445	1086.8203	1102.6186	1111.8761	1127.4432	1144.3233	1158.1482	1212.4873	1223.6805	1236.7297	1259.5741	1297.5755	1318.6685	1341.3334	1368.8838	1422.1113	1481.8778	1517.1165	1813.7021	2870.6633	3024.0454	3076.1487	3109.7498	3122.5944	3132.1455	3134.0575	3156.3874	3227.5057
O=CC1CC2C3CN3C12	O=C[C@H]1C[C@H]2[C@H]3CN3[C@@H]12	
InChI=1S/C7H9NO/c9-3-4-1-5-6-2-8(6)7(4)5/h3-7H,1-2H2	InChI=1S/C7H9NO/c9-3-4-1-5-6-2-8(6)7(4)5/h3-7H,1-2H2/t4-,5+,6-,7+,8?/m1/s1
