17
gdb 79000	3.48601	1.82246	1.66634	2.0765	76.33	-0.203	-0.0243	0.1787	854.1687	0.137684	-384.584803	-384.578627	-384.577683	-384.614888	26.982	
O	 0.3310839332	 1.3748939178	-0.3125020739	-0.416419
C	 0.1105294096	 0.0364462618	-0.0359270042	 0.118215
C	-1.3236814446	-0.6620359071	-0.1921572273	-0.090524
C	-2.0709373138	-0.7540340165	-1.5632134592	-0.111854
C	-1.0772585901	-1.155180005	-2.7345849434	-0.07458
C	 0.2748240385	-0.7039695122	-2.356172729	-0.143142
C	 0.4804630904	-1.0565743669	-1.0627087124	-0.03601
C	-0.6423301665	-1.9999242506	-0.5860897736	-0.066465
C	-1.6019646979	-2.1804751103	-1.7735766627	-0.087146
H	 0.0719804548	 1.5308013663	-1.2290610334	 0.281943
H	 0.4512499034	-0.1253617836	 0.9922778568	 0.098202
H	-1.9970386947	-0.6055227556	 0.6658426008	 0.084619
H	-3.0222968603	-0.2994701142	-1.8046403735	 0.096066
H	-1.4900882152	-1.0969897748	-3.7359143198	 0.089973
H	 0.7083862223	 0.1851273817	-2.8078922682	 0.089446
H	-0.4204755334	-2.7836811522	 0.1334480745	 0.074533
H	-2.1522887256	-3.0654890182	-2.0609449115	 0.093144
175.8626	282.4344	415.5191	498.3784	535.7801	567.0824	627.8728	675.1456	687.039	734.3889	762.4501	782.167	826.7753	859.0441	872.0113	886.0738	912.8529	940.7335	951.0615	975.6606	998.7664	1026.0804	1042.4515	1084.2683	1105.151	1143.884	1156.7604	1174.2219	1219.4358	1236.0167	1240.7839	1252.1163	1306.4276	1318.7613	1356.3612	1439.0986	1558.2137	3058.5557	3092.417	3143.2224	3147.0446	3174.8942	3201.7534	3214.7429	3776.4276
OC1C2C3C4C=C1C2C34	O[C@H]1[C@H]2[C@H]3[C@H]4[CH][C]1[C@@H]2[C@@H]34	
InChI=1S/C8H8O/c9-8-3-1-2-4-5(2)7(8)6(3)4/h1-2,4-9H	InChI=1S/C8H8O/c9-8-3-1-2-4-5(2)7(8)6(3)4/h1-2,4-9H/t2-,4+,5-,6+,7-,8+/m0/s1
