20
gdb 75803	3.10629	1.2484	1.05111	3.8139	80.82	-0.2365	0.0404	0.2768	1207.8997	0.171004	-403.168091	-403.159237	-403.158293	-403.201867	32.97	
C	-0.0030042443	 1.4127615368	-0.3232309189	-0.358841
N	 0.0132326631	-0.0095464509	-0.1038735898	-0.120473
C	 0.0039852854	-1.0612165975	-0.9879578213	 0.412971
O	-0.0201896282	-1.102652431	-2.1909361295	-0.378857
C	 0.0360343319	-2.0767323089	 0.1761740434	-0.472526
C	 0.0447734827	-0.8276589649	 1.1068267359	 0.395417
C	 1.151932936	-0.67928214	 2.1816047725	-0.288808
C	 0.0907137082	-1.0539504209	 3.253035491	-0.207351
C	-1.0196209497	-0.6971859922	 2.2261916722	-0.28883
H	 0.8915780346	 1.8978193553	 0.0861702373	 0.127879
H	-0.0267099517	 1.5776791965	-1.4030812259	 0.163353
H	-0.8877611918	 1.8831375795	 0.1229825861	 0.12788
H	-0.8509023258	-2.7098396127	 0.2454089379	 0.127948
H	 0.9349184108	-2.6957256795	 0.2090988777	 0.127948
H	 2.0409723725	-1.3068137937	 2.0819211091	 0.103552
H	 1.4697066584	 0.3635322634	 2.2817020296	 0.105231
H	 0.1042980079	-2.1218545999	 3.4852366804	 0.110693
H	 0.1053168797	-0.4935308037	 4.1892136224	 0.104031
H	-1.3501243811	 0.3402981366	 2.3395918591	 0.105233
H	-1.9015599786	-1.3392932522	 2.1628920707	 0.103551
87.9264	116.1768	124.7008	136.6585	228.2918	295.3053	319.814	426.0893	450.2186	544.3015	560.4001	679.4072	734.9902	789.7451	821.9725	885.6439	886.5087	923.7461	930.9002	969.3602	1033.0492	1052.3603	1071.4404	1116.4725	1148.7478	1162.4219	1183.4631	1198.5594	1204.5389	1251.7692	1256.616	1272.5913	1273.9645	1330.6045	1408.3464	1445.0735	1466.6111	1470.8873	1484.0923	1486.0734	1507.041	1515.7883	1877.7213	3014.3172	3049.4098	3054.4828	3064.9256	3069.3006	3078.3726	3102.8121	3106.1313	3127.2106	3128.7843	3136.1017
CN1C(=O)CC11CCC1	CN1C(=O)CC21CCC2	
InChI=1S/C7H11NO/c1-8-6(9)5-7(8)3-2-4-7/h2-5H2,1H3	InChI=1S/C7H11NO/c1-8-6(9)5-7(8)3-2-4-7/h2-5H2,1H3
