17
gdb 90217	3.06213	1.83413	1.62209	2.7211	72.29	-0.2147	0.0505	0.2652	877.9679	0.137314	-417.814974	-417.808334	-417.80739	-417.845591	27.936	
O	 0.1605311798	 1.265634323	-0.3156488534	-0.420372
C	 0.0657163848	-0.0939913493	-0.0097977929	 0.045824
C	 0.1823004571	-0.4381829874	 1.5375425345	-0.34999
C	-1.3658311751	-0.4569694132	 1.6047726312	 0.177823
N	-2.137523776	 0.8323395639	 1.4866484717	-0.391394
C	-2.7788615051	-0.0594327203	 0.4685860358	-0.063371
C	-2.5555846807	-1.4199090792	 1.2596309079	-0.08041
N	-1.881579555	-2.06453956	 0.0825748302	-0.378201
C	-1.405999423	-0.6374357437	 0.0610588373	 0.229455
H	-0.5118596949	 1.7102042477	 0.2242425252	 0.293917
H	 0.7434871422	-0.6327727176	-0.6780127315	 0.09874
H	 0.6296094035	-1.4191344281	 1.719013499	 0.11621
H	 0.6851925599	 0.3073255949	 2.1570712278	 0.123467
H	-2.7407221187	 0.9890020676	 2.2965747435	 0.217348
H	-3.6423828755	 0.2377057007	-0.1340502593	 0.091438
H	-3.2555070882	-1.9640204893	 1.9045254644	 0.079544
H	-1.1363559152	-2.6822228597	 0.4184051985	 0.209971
151.2768	242.3954	345.8502	400.0277	448.0809	477.9714	521.3921	583.9442	637.5379	726.3089	769.1592	774.4594	806.1439	825.106	881.5549	904.7225	924.6113	954.3409	1000.6407	1037.7166	1064.9732	1085.5305	1098.7589	1120.3898	1164.9087	1171.8958	1197.5136	1203.4316	1234.0855	1241.7591	1263.7411	1274.4138	1292.9767	1303.851	1348.1683	1445.0082	1466.8314	3040.6401	3063.9249	3071.073	3075.4812	3129.4552	3392.4789	3416.3617	3692.9488
OC1CC23NC4C2NC134	O[C@H]1C[C@]23N[C@@H]4[C@H]2N[C@]134	
InChI=1S/C6H8N2O/c9-2-1-5-3-4(7-5)6(2,5)8-3/h2-4,7-9H,1H2	InChI=1S/C6H8N2O/c9-2-1-5-3-4(7-5)6(2,5)8-3/h2-4,7-9H,1H2/t2-,3+,4+,5-,6-/m0/s1
