18
gdb 51760	2.61042	1.14482	0.89567	3.3137	80.04	-0.2493	0.0263	0.2756	1310.011	0.147123	-401.932365	-401.923357	-401.922413	-401.966935	33.084	
O	 0.1099214373	-0.4414726195	-0.1009504124	-0.322461
C	-0.0155761514	 0.7403257025	 0.1397901478	 0.150375
N	 0.9760393845	 1.6709462412	 0.0590654476	-0.287978
C	 2.3410720136	 1.3457714308	-0.2393130302	 0.06903
C	 3.0481820351	 1.9988622186	-1.455917041	-0.23899
C	 4.3387865608	 2.0987654833	-0.6026784142	-0.22664
C	 3.4711679223	 1.9317806291	 0.6915145842	-0.21684
C	 3.1004696709	 3.1872649413	 1.3161804606	 0.325866
C	 2.7524312502	 4.229837837	 1.8076205918	-0.471718
H	-0.9777380414	 1.1949782197	 0.4482002967	 0.075417
H	 0.7764836406	 2.6156937235	 0.3547589061	 0.250007
H	 2.4082033853	 0.2579291924	-0.2747533554	 0.128485
H	 3.0817117658	 1.4222533943	-2.3821465968	 0.112292
H	 2.6316305163	 2.9877375302	-1.6668352979	 0.110588
H	 4.9967075232	 1.2375685081	-0.7400391204	 0.113959
H	 4.9252339508	 3.0144401211	-0.676572786	 0.116963
H	 3.8563840351	 1.237685386	 1.4436012338	 0.109033
H	 2.480841261	 5.1503093201	 2.2626027856	 0.202612
41.9476	95.469	128.5863	188.4807	218.1305	241.6141	364.3126	419.4893	477.1644	572.3575	586.8357	625.8426	639.4849	659.8861	739.9618	804.7306	854.6152	900.2235	928.9067	959.9425	1018.7288	1033.908	1080.5138	1100.8383	1120.5664	1189.0213	1221.3241	1243.061	1259.1878	1265.7053	1272.5367	1342.9826	1366.3996	1431.9101	1481.5474	1495.8371	1534.918	1804.8065	2223.8128	2938.4778	3064.9496	3066.9786	3079.1942	3115.0224	3128.0192	3142.7413	3501.5513	3606.8614
O=CNC1CCC1C#C	O=CN[C@H]1CC[C@H]1C#C	
InChI=1S/C7H9NO/c1-2-6-3-4-7(6)8-5-9/h1,5-7H,3-4H2,(H,8,9)	InChI=1S/C7H9NO/c1-2-6-3-4-7(6)8-5-9/h1,5-7H,3-4H2,(H,8,9)/t6-,7+/m1/s1
