20
gdb 77394	2.15709	1.9815	1.24246	1.7044	78.92	-0.2267	0.0778	0.3044	1067.4685	0.169995	-403.064342	-403.055725	-403.054781	-403.096798	34.042	
C	-0.1958726182	 1.616504587	-0.0048890554	-0.42324
C	-0.0599739173	 0.1010863632	 0.0009778718	-0.100697
C	 0.8750467076	-0.5862775509	-1.0375561402	 0.339618
C	 0.7587931404	-0.6217281546	-2.5340333251	-0.524598
C	 2.1697167194	-0.2772156062	-0.1949822705	-0.159807
N	 2.6443506387	-1.6988494423	-0.1107248713	-0.369645
C	 1.1473993981	-1.801239808	-0.0801737723	-0.154936
C	 1.0333883734	-0.5490936995	 0.8544582125	 0.436672
O	 1.1094687292	-0.4953203223	 2.22440865	-0.477275
H	 0.7763278478	 2.1088619622	-0.1150061495	 0.11372
H	-0.8362990379	 1.9527896129	-0.8275099567	 0.113022
H	-0.6429142495	 1.9719518952	 0.92912869	 0.127547
H	-1.0404191185	-0.383002346	 0.097580337	 0.06544
H	 0.7793442433	 0.387804065	-2.958865051	 0.125168
H	 1.5863709721	-1.1865115331	-2.9801474444	 0.114378
H	-0.1765588248	-1.0972416821	-2.8490613229	 0.123555
H	 2.8508919932	 0.5713394639	-0.2711114326	 0.077072
H	 3.0078965655	-2.0100828983	-1.0160027659	 0.205106
H	 0.6059695783	-2.7470253874	-0.0176088962	 0.074583
H	 1.8988457893	-0.9856995788	 2.4874015627	 0.294317
181.0503	184.683	202.8982	226.0716	231.1998	259.6521	290.9846	371.7416	434.822	531.5339	571.6011	593.4023	694.1671	733.5759	742.9828	813.7309	888.0476	895.834	920.231	934.2758	1008.3194	1038.7421	1043.0062	1085.0777	1100.9752	1109.6851	1144.5827	1158.3503	1169.7722	1176.9617	1199.9533	1271.4973	1277.2191	1312.7682	1359.3987	1369.3371	1409.8994	1413.6126	1459.8393	1484.4708	1493.2084	1494.9392	1504.4739	3021.1608	3024.2663	3031.0285	3083.5162	3091.6759	3095.1423	3098.4438	3101.4906	3108.4058	3395.9191	3779.3467
CC1C2(C)C3NC2C13O	C[C@H]1[C@@]2(C)[C@@H]3N[C@H]2[C@]13O	
InChI=1S/C7H11NO/c1-3-6(2)4-7(3,9)5(6)8-4/h3-5,8-9H,1-2H3	InChI=1S/C7H11NO/c1-3-6(2)4-7(3,9)5(6)8-4/h3-5,8-9H,1-2H3/t3-,4-,5+,6-,7-/m0/s1
