19
gdb 80600	2.79225	1.46679	1.25126	3.0455	74.81	-0.2363	-0.0043	0.2321	1066.157	0.159718	-423.029027	-423.020781	-423.019837	-423.061495	32.158	
C	-0.1380569571	 1.536236281	-0.0490773467	-0.420627
C	 0.0550424323	 0.0207568802	-0.0404387486	-0.019285
C	 0.964313191	-0.5319971026	-1.1709801412	-0.151177
C	 2.404086552	-0.3360481537	-0.5883257407	-0.251305
C	 1.9383174125	-1.3577911862	 0.5050641252	-0.146108
C	 0.8375340589	-0.5534320097	 1.2158383107	 0.097343
O	 1.4541896689	 0.4293469684	 2.0293767334	-0.425523
C	 1.1466064391	-1.9739043824	-0.6666692291	 0.423763
O	 0.9268371413	-3.0748384337	-1.0750195515	-0.326802
H	 0.8107007108	 2.0736948006	 0.0137585968	 0.133006
H	-0.649265721	 1.8476505271	-0.9653233845	 0.120006
H	-0.7603161638	 1.8607383395	 0.7930331944	 0.105589
H	-0.9309887693	-0.4537293563	-0.1011090811	 0.084326
H	 0.7022808089	-0.2971860897	-2.2012371053	 0.080994
H	 3.184003673	-0.7332799203	-1.2393718982	 0.116789
H	 2.6671524278	 0.6562767174	-0.2233888816	 0.127661
H	 2.625521698	-1.9284801559	 1.1251561895	 0.088389
H	 0.1939431826	-1.2007817676	 1.8256180438	 0.076533
H	 0.7656010141	 0.9127797039	 2.4961491747	 0.286429
130.0968	142.8405	194.8483	254.0107	261.0578	304.9177	317.4169	474.8084	497.5183	517.8745	641.0729	697.8988	762.6633	786.5939	801.982	842.0487	894.8506	955.9388	999.895	1007.9223	1017.6304	1034.3964	1065.0383	1091.5734	1103.6585	1126.7229	1137.1825	1188.4841	1215.0004	1222.1825	1245.3047	1260.501	1317.3046	1336.4212	1373.6594	1405.3219	1425.4747	1491.6413	1493.5916	1504.2235	1901.263	3010.1755	3032.744	3041.0584	3090.1126	3092.9138	3126.3152	3136.0347	3153.8924	3157.5301	3824.7066
CC1C2CC(C1O)C2=O	C[C@H]1[C@H]2C[C@@H]([C@H]1O)C2=O	
InChI=1S/C7H10O2/c1-3-4-2-5(6(3)8)7(4)9/h3-6,8H,2H2,1H3	InChI=1S/C7H10O2/c1-3-4-2-5(6(3)8)7(4)9/h3-6,8H,2H2,1H3/t3-,4+,5-,6-/m0/s1
