15
gdb 35076	3.94029	1.36185	1.30295	3.5981	76.15	-0.2359	-0.0641	0.1718	979.0862	0.113723	-379.551918	-379.545207	-379.544262	-379.583115	26.493	
N	-0.0538053878	-1.1681052393	 0.124662765	-0.31618
C	-0.057114987	-0.0138560855	 0.0675700041	 0.269593
C	-0.0511808137	 1.4466749748	-0.0082518312	-0.192734
C	-0.5756702023	 2.0620663781	 1.2958129676	-0.124063
C	 0.2145376681	 3.1073156417	 1.6209468071	 0.020146
C	 1.4085291255	 2.7608620943	 2.5103553253	-0.166816
N	 2.1713400486	 2.5839475253	 1.1837305928	-0.136467
C	 1.3553108527	 2.1087464231	-0.0410238454	-0.024559
C	 1.1891781075	 3.4624174332	 0.4962063816	-0.092528
H	-0.5656798199	 1.7324762449	-0.9373490118	 0.14312
H	-0.9889656798	 1.3990223879	 2.0489272931	 0.125525
H	 1.9158357384	 3.5777156732	 3.0302715537	 0.129724
H	 1.3253670232	 1.8784876385	 3.1488386412	 0.129619
H	 2.0421198074	 1.8692094463	-0.8465266701	 0.125273
H	 1.4405502691	 4.4244367036	 0.065869217	 0.110345
95.6614	164.0083	313.1421	410.8838	419.6986	499.3355	544.0981	587.3683	681.7884	718.7122	741.0844	800.8159	863.2487	887.7944	905.0462	929.716	1002.8838	1007.1296	1018.9383	1044.9008	1067.6367	1081.3195	1122.2818	1170.1208	1211.2422	1240.8909	1261.1989	1283.5943	1318.2568	1348.4269	1510.2602	1576.0967	2358.7566	3001.3426	3059.1372	3127.7588	3175.301	3181.0299	3187.9265
N#CC1C=C2CN3C1C23	N#C[C@H]1[CH][C]2CN3[C@@H]1[C@@H]23	
InChI=1S/C7H6N2/c8-2-4-1-5-3-9-6(4)7(5)9/h1,4,6-7H,3H2	InChI=1S/C7H6N2/c8-2-4-1-5-3-9-6(4)7(5)9/h1,4,6-7H,3H2/t4-,6+,7-,9?/m1/s1
