18
gdb 12827	3.39938	1.94835	1.56437	2.0473	67.09	-0.2472	0.0784	0.3256	865.7381	0.155198	-384.925691	-384.918519	-384.917575	-384.95664	28.625	
O	-0.0592333253	 1.3895075197	 0.0933371364	-0.470302
C	 0.0141466659	-0.0083952329	-0.0158847186	 0.421016
C	-0.4898548673	-0.6237448875	-1.2947519818	-0.354895
C	-1.3162678047	-0.7028768403	-0.0192824699	-0.086207
C	-1.4564439169	-2.0297940258	 0.7254525071	-0.100534
O	-0.4074200437	-2.2933658252	 1.6430996688	-0.236759
C	 0.8696619582	-2.1275059328	 1.0618014043	-0.091614
C	 1.1451678731	-0.6477122742	 0.7680664348	-0.280637
H	 0.698444082	 1.7604152129	-0.3732135673	 0.278592
H	-0.826714016	 0.06112678	-2.0646968575	 0.111817
H	-0.032781177	-1.5383137231	-1.6627403367	 0.106947
H	-2.1777013598	-0.0455669902	 0.0224276367	 0.102163
H	-2.3724945729	-2.029034276	 1.3221431282	 0.113017
H	-1.5302667404	-2.8601385916	 0.0026883891	 0.088436
H	 1.5942929833	-2.5136275486	 1.7842150461	 0.110276
H	 0.9598478897	-2.7359540459	 0.1452012427	 0.085671
H	 2.1038390612	-0.5390605586	 0.2426618284	 0.086419
H	 1.2257206104	-0.11164463	 1.7199372193	 0.116594
142.0419	202.2741	290.7458	339.9861	369.8972	387.3691	398.9845	488.8197	520.3875	638.4712	701.5234	788.3712	877.7396	900.9046	909.7224	924.8592	979.7182	989.1356	1032.5117	1059.2065	1068.9131	1108.6518	1131.8066	1160.8783	1211.5111	1243.8265	1265.6408	1281.3833	1324.946	1343.9932	1364.3144	1388.3601	1414.9102	1418.9937	1477.6596	1495.1194	1496.4548	1509.9066	2954.7458	2960.8852	3015.8045	3072.29	3085.409	3087.6026	3120.9781	3172.4555	3215.048	3788.712
OC12CC1COCC2	O[C@]12C[C@H]1COCC2	
InChI=1S/C6H10O2/c7-6-1-2-8-4-5(6)3-6/h5,7H,1-4H2	InChI=1S/C6H10O2/c7-6-1-2-8-4-5(6)3-6/h5,7H,1-4H2/t5-,6+/m0/s1
