19
gdb 89428	2.7406	1.41195	1.08947	0.3103	76.9	-0.2372	0.0158	0.253	1138.5816	0.159415	-423.015757	-423.007417	-423.006473	-423.048268	33.282	
O	-0.1300770886	 1.4796748908	-0.1379681747	-0.438271
C	 0.0338079744	 0.0697643208	-0.0155631037	 0.082792
C	-1.3736907254	-0.53064585	 0.0893128066	-0.274181
C	-1.3459476342	-2.0581087984	 0.0393730599	 0.38364
O	-1.5311438911	-2.7102335969	 1.2689504531	-0.474936
C	-1.8055583379	-2.7709525036	-1.211399907	-0.351752
C	-0.3220352364	-2.6930411792	-0.8492791894	-0.10591
C	 0.6033440546	-1.7899374936	-1.5779499435	-0.067723
C	 0.7725795547	-0.5234342804	-1.1967287718	-0.107153
H	 0.7417189129	 1.8859979851	-0.1076315987	 0.280525
H	 0.5854217566	-0.1640094306	 0.911210685	 0.083446
H	-1.8428025156	-0.2068673358	 1.0233835231	 0.099787
H	-1.9632948373	-0.1183875597	-0.7354786591	 0.110379
H	-2.4521464459	-2.5923450935	 1.5279453709	 0.278755
H	-2.285426266	-3.7353125222	-1.0831322393	 0.110813
H	-2.1627478866	-2.1764844269	-2.0459858096	 0.112964
H	 0.0984600336	-3.6259198653	-0.4841294576	 0.104372
H	 1.1438163731	-2.1920437745	-2.4315521421	 0.090004
H	 1.4530038052	 0.1366339638	-1.7300435922	 0.082449
94.0362	162.3263	254.1573	294.7628	314.9597	332.8674	390.1892	404.0077	443.196	448.5583	522.5201	578.8618	696.1657	723.7221	807.7659	813.9657	912.4453	922.4089	935.719	969.1486	984.6133	997.1861	1045.6046	1053.2124	1088.5992	1099.0786	1104.278	1155.174	1197.0875	1241.6138	1250.9838	1289.3942	1331.0807	1339.2628	1356.7119	1401.0053	1416.6974	1425.3432	1473.9423	1490.0289	1703.088	2948.5599	3049.5282	3097.8566	3126.4597	3141.551	3149.4999	3165.9689	3222.3293	3787.8188	3819.5459
OC1CC2(O)CC2C=C1	O[C@H]1C[C@@]2(O)C[C@H]2C=C1	
InChI=1S/C7H10O2/c8-6-2-1-5-3-7(5,9)4-6/h1-2,5-6,8-9H,3-4H2	InChI=1S/C7H10O2/c8-6-2-1-5-3-7(5,9)4-6/h1-2,5-6,8-9H,3-4H2/t5-,6-,7+/m1/s1
