22
gdb 100472	4.53011	0.58636	0.5451	1.9112	94.7	-0.2277	0.0414	0.2691	2104.5341	0.193109	-367.166389	-367.155721	-367.154777	-367.204124	37.829	
C	-0.0795864285	 1.5488831327	-0.0749738394	-0.394137
C	-0.0249945682	 0.0213965862	 0.0141059535	-0.156096
C	 0.7345063789	-0.5140063446	 1.2543623282	-0.146985
C	 0.0512226415	-0.1336531207	 2.5842034118	-0.38216
C	 0.9020092248	-1.9644594182	 1.1548032394	 0.053412
C	 1.01800292	-3.161946311	 1.0620952283	 0.100538
C	 1.1431270649	-4.5898774709	 0.9703621015	-0.158201
C	 2.4961096686	-5.2231916121	 0.9451275966	-0.22697
N	 1.644560183	-5.3722101847	 2.129511658	-0.308462
H	 0.9267514444	 1.9830290636	-0.063273744	 0.114722
H	-0.5636823757	 1.8621333925	-1.0050174504	 0.115752
H	-0.6433459034	 1.9915290063	 0.7516111673	 0.120782
H	-1.0405077975	-0.3929916569	 0.0210494765	 0.104914
H	 0.4628230149	-0.3779390967	-0.8815644691	 0.107017
H	 1.7352826688	-0.0567149962	 1.2480855974	 0.099182
H	-0.966596094	-0.5345990134	 2.6212097666	 0.124116
H	 0.6049067868	-0.5418321282	 3.4337327382	 0.121716
H	 0.0003755432	 0.9520676415	 2.7022723003	 0.116083
H	 0.3399356213	-5.0947386746	 0.4391888116	 0.113631
H	 2.6452696809	-6.1325866563	 0.3696998984	 0.122675
H	 3.355335169	-4.560891746	 0.9922996587	 0.120895
H	 1.9482417064	-4.7211059123	 2.8499106106	 0.237575
15.6076	72.1982	75.7268	117.7818	168.0747	208.0371	215.8116	272.8239	298.9887	368.669	471.1293	496.4869	507.221	561.8478	709.9241	776.6272	809.3031	826.0935	877.002	952.7866	964.7099	977.0428	993.4758	1028.7232	1061.1709	1107.7117	1126.7856	1130.1873	1154.9552	1182.8139	1221.3539	1256.7987	1283.8496	1298.4836	1315.2056	1344.9039	1374.6483	1397.4391	1405.6215	1414.1417	1483.6932	1492.3604	1498.0946	1504.5676	1505.0564	1510.9285	2353.4767	2990.4851	3032.9109	3035.8947	3042.8596	3070.8611	3100.5183	3109.4549	3113.2086	3116.1076	3121.8363	3134.5177	3203.6212	3502.5303
CCC(C)C#CC1CN1	CC[C@@H](C)C#C[C@H]1CN1	
InChI=1S/C8H13N/c1-3-7(2)4-5-8-6-9-8/h7-9H,3,6H2,1-2H3	InChI=1S/C8H13N/c1-3-7(2)4-5-8-6-9-8/h7-9H,3,6H2,1-2H3/t7-,8+/m1/s1
