19
gdb 20086	3.36101	1.4664	1.22578	1.6432	72.45	-0.2193	0.0774	0.2966	1058.1974	0.163863	-365.00151	-364.992722	-364.991778	-365.035176	31.628	
C	-0.0843061366	 1.5391909064	 0.6671738171	-0.418754
C	 0.0784213608	 0.0888077258	 0.264022582	-0.004873
C	 0.4693250181	-0.3462974433	-1.1170069917	-0.042397
C	 0.7524747964	 0.6234684811	-2.2201164626	 0.073192
C	 1.1172899692	 0.1445785802	-3.5621334372	-0.184673
O	-0.2011262957	 0.6179172132	-3.2898813484	-0.23433
N	 1.3719338865	-0.5510836924	 0.0188410647	-0.110751
C	 2.6156783397	 0.1991696928	 0.1264512443	-0.31179
H	 0.555960374	 2.2256057318	 0.1103551035	 0.120386
H	-1.1208913066	 1.8522655237	 0.5051198484	 0.131478
H	 0.1375901696	 1.6680711843	 1.7322122994	 0.124252
H	-0.6096028933	-0.5698991072	 0.7947434832	 0.091208
H	 0.0356951293	-1.2689266688	-1.5040543755	 0.091608
H	 1.0864072771	 1.6206219732	-1.9416575204	 0.094089
H	 1.7167954382	 0.7742839458	-4.2183384525	 0.114615
H	 1.2007246369	-0.9268042618	-3.7413035022	 0.116628
H	 2.5672754855	 1.2606746175	-0.1536251543	 0.099677
H	 2.9661857564	 0.1438886435	 1.1621595348	 0.124697
H	 3.3692555043	-0.2802335456	-0.5064033028	 0.125736
53.5103	124.733	151.5753	177.6205	198.8186	260.7606	308.0524	339.9986	468.4909	504.4645	568.5956	725.1483	781.9882	838.3302	859.6482	929.5408	980.9828	996.1196	1047.041	1094.6142	1100.6117	1133.8583	1151.0281	1156.8832	1169.42	1170.6248	1188.1306	1212.3644	1291.9446	1321.1455	1346.9424	1403.0249	1418.4955	1454.3115	1472.4437	1484.9573	1495.3885	1504.5723	1507.3838	1528.4764	2998.2589	3039.7536	3068.3321	3080.2826	3089.8698	3097.0183	3100.234	3100.9645	3125.1571	3136.9115	3168.6066
CC1C(C2CO2)N1C	C[C@H]1[C@@H]([C@H]2CO2)N1C	
InChI=1S/C6H11NO/c1-4-6(7(4)2)5-3-8-5/h4-6H,3H2,1-2H3	InChI=1S/C6H11NO/c1-4-6(7(4)2)5-3-8-5/h4-6H,3H2,1-2H3/t4-,5+,6-,7?/m0/s1
