19
gdb 113591	4.25609	0.9334	0.85957	1.5634	72.08	-0.2467	0.0689	0.3156	1363.98	0.158801	-460.130895	-460.121972	-460.121028	-460.165493	32.311	
O	-0.1508295667	 1.3241087029	-0.7509640852	-0.414475
C	 0.0215296908	 0.1357834197	 0.0075254339	-0.105148
C	-1.3282040869	-0.5099488018	 0.1724532114	-0.080803
C	-1.9212304665	-1.3629606503	-0.9400093615	-0.347052
C	-1.466655791	-1.9837281518	 0.3530710262	 0.383794
C	-0.3298529412	-3.0087251443	 0.4449385484	-0.155967
O	-0.8916074572	-4.0785909699	 1.2015758032	-0.252247
C	-2.2777657497	-3.8284609289	 1.2841693705	 0.012101
O	-2.4334681294	-2.4307042214	 1.2763387844	-0.268819
H	 0.6936840253	 1.7835802779	-0.7831670741	 0.286812
H	 0.71202908	-0.56003355	-0.498054176	 0.081533
H	 0.451266392	 0.3562622006	 0.9977394267	 0.094188
H	-2.0431843175	 0.08580016	 0.7324297758	 0.108149
H	-2.9884926804	-1.28708645	-1.1130403264	 0.123171
H	-1.3181059872	-1.5253084937	-1.82866486	 0.113835
H	-0.0122963846	-3.3540531484	-0.5473847076	 0.10542
H	 0.5470616532	-2.6343904509	 0.9849423054	 0.112369
H	-2.8065355586	-4.2833765459	 0.4267633355	 0.083417
H	-2.6628518345	-4.2277798537	 2.2261569593	 0.119722
43.0231	84.797	130.202	175.2138	242.6385	267.5476	325.9944	345.0886	419.0474	483.1179	617.073	745.0641	787.8558	865.4472	873.6096	913.488	935.5904	961.8947	1010.2098	1038.6219	1051.86	1069.2362	1095.0877	1104.7937	1117.9436	1164.407	1178.549	1210.9486	1228.4719	1236.7975	1253.35	1283.9621	1313.811	1367.0119	1404.5873	1433.8933	1465.7391	1495.2808	1518.8743	1524.8764	1542.1781	2936.4091	2956.5904	2987.0268	3014.4758	3057.2591	3095.3146	3126.2083	3158.0237	3222.4804	3824.428
OCC1CC11COCO1	OC[C@H]1C[C@]21COCO2	
InChI=1S/C6H10O3/c7-2-5-1-6(5)3-8-4-9-6/h5,7H,1-4H2	InChI=1S/C6H10O3/c7-2-5-1-6(5)3-8-4-9-6/h5,7H,1-4H2/t5-,6-/m1/s1
