14
gdb 28754	3.56402	1.2024	0.89908	0.9281	68.81	-0.1922	-0.0066	0.1855	1190.2378	0.102657	-470.067934	-470.060101	-470.059157	-470.100495	28.891	
O	 0.2333541061	 1.3648606313	 0.2624361298	-0.432671
C	 0.162095229	 0.031980357	 0.0428952542	 0.362646
C	 0.1147895311	-0.7711374996	-1.0642460699	-0.235598
N	 0.0461971129	-2.10274892	-0.6747515922	-0.344873
C	 0.0536403812	-2.0689046248	 0.6293185455	 0.4844
N	-0.0025464991	-3.1959299542	 1.4462785415	-0.391156
C	 0.0042281698	-3.1892157903	 2.8070666039	 0.149844
O	 0.0603103282	-2.1874947355	 3.4983717937	-0.3387
N	 0.1227894348	-0.8027159347	 1.1346487603	-0.339973
H	 0.253073444	 1.8132763677	-0.5886795947	 0.31167
H	 0.1254681025	-0.4846104754	-2.1037685519	 0.102951
H	-0.0506263917	-4.0728576767	 0.9491951436	 0.276014
H	-0.0476493664	-4.2087307061	 3.2263205551	 0.099202
H	 0.1385097375	-0.5835870986	 2.120834411	 0.296245
96.0038	168.3719	177.6509	226.9903	308.0587	330.1881	412.9783	458.2514	587.8337	597.6702	610.2587	674.4368	719.5737	723.4794	763.0247	869.0935	1007.0079	1012.8112	1044.719	1142.0547	1152.2923	1175.7695	1247.1092	1293.6936	1422.2168	1456.0644	1486.9197	1527.4242	1624.1751	1642.5747	1773.0293	2989.0217	3255.161	3609.4131	3631.5374	3844.5346
OC1=CN=C(NC=O)N1	Oc1cnc(NC=O)[nH]1	
InChI=1S/C4H5N3O2/c8-2-6-4-5-1-3(9)7-4/h1-2,9H,(H2,5,6,7,8)	InChI=1S/C4H5N3O2/c8-2-6-4-5-1-3(9)7-4/h1-2,9H,(H2,5,6,7,8)
