21
gdb 70156	2.36664	1.71738	1.25695	1.3046	83.46	-0.231	0.0186	0.2496	1081.1634	0.184113	-387.086732	-387.078528	-387.077584	-387.118812	33.531	
O	 0.0467032797	 1.3571473943	-0.0169707091	-0.478495
C	 0.0309046709	-0.0481697845	-0.039932845	 0.415955
C	-0.5411614109	-0.739330844	-1.2566618101	-0.372646
C	-1.3444042605	-0.6464174929	 0.035308576	-0.093219
C	-1.5889978961	-1.8233266704	 0.9160673337	-0.072806
C	-1.1425194378	-1.8711538261	 2.1739106435	-0.060284
C	-0.3705676091	-0.735461526	 2.8098240074	-0.248895
C	 1.0628846719	-0.5384873274	 2.2517641002	-0.186843
C	 1.1575984721	-0.7189778958	 0.7258239298	-0.260539
H	 0.8283266038	 1.6502497059	-0.4992213011	 0.277644
H	-0.8704280954	-0.1121908306	-2.0777791874	 0.108602
H	-0.1281880512	-1.7004305003	-1.5468438437	 0.107789
H	-2.1488152838	 0.085961269	-0.0109816315	 0.103918
H	-2.1599547939	-2.6534836565	 0.5040832635	 0.082369
H	-1.3388725236	-2.7550096755	 2.7764523233	 0.083644
H	-0.9244365663	 0.1960293735	 2.6467132888	 0.124219
H	-0.3155792864	-0.8753185927	 3.8938208713	 0.090794
H	 1.3993172497	 0.465573772	 2.5314560794	 0.101158
H	 1.7536899471	-1.2438787636	 2.7276744943	 0.092587
H	 1.1447739132	-1.7862555956	 0.4884412362	 0.10523
H	 2.1220624265	-0.3375497626	 0.3633988107	 0.079818
137.1269	176.2459	225.3464	292.7976	316.6636	331.0547	380.6322	414.2753	442.0465	525.6477	570.9863	670.9134	705.3309	745.8116	807.3373	845.294	854.5185	912.4652	913.9488	941.7313	969.7764	991.4881	1027.6385	1041.5044	1049.7387	1075.0703	1101.5306	1121.4465	1173.942	1201.4907	1230.7793	1253.0831	1276.5308	1305.1764	1329.2675	1340.5647	1373.8902	1385.7193	1413.2888	1427.7735	1471.9075	1486.8913	1489.592	1498.7214	1700.9242	3014.9925	3034.7809	3037.1071	3067.4893	3080.8565	3091.4977	3117.6789	3125.7105	3133.2044	3160.572	3218.2024	3786.397
OC12CC1C=CCCC2	O[C@]12C[C@H]1C=CCCC2	
InChI=1S/C8H12O/c9-8-5-3-1-2-4-7(8)6-8/h2,4,7,9H,1,3,5-6H2	InChI=1S/C8H12O/c9-8-5-3-1-2-4-7(8)6-8/h2,4,7,9H,1,3,5-6H2/t7-,8-/m1/s1
