17
gdb 95529	2.24102	1.66547	1.20738	4.2228	72.4	-0.2711	-0.0017	0.2694	1062.6958	0.137559	-418.035134	-418.026925	-418.025981	-418.06805	30.261	
C	-0.1034919444	 1.5547142696	-0.0310033246	-0.423428
C	 0.028185915	 0.0316350653	-0.0115062227	-0.038197
C	 0.7346538091	-0.4985694154	-1.2542137974	-0.080939
O	 0.8384947251	-1.9330721966	-1.2281569815	-0.219173
C	 1.0071561342	-2.4979470217	-0.0189279747	 0.142543
N	 1.0182210461	-1.9728777786	 1.1359585248	-0.269197
C	 0.7795815825	-0.526342564	 1.2216927413	-0.130042
C	 2.0621550954	 0.166998497	 1.4343023944	 0.302931
N	 3.0641068816	 0.7259076776	 1.5737631356	-0.335236
H	 0.8762295814	 2.0396112177	-0.0766658838	 0.150643
H	-0.6874603819	 1.88069409	-0.8973943092	 0.12414
H	-0.6127384816	 1.9140035185	 0.8684678523	 0.130381
H	-0.9717714271	-0.4177588113	 0.0241067428	 0.104223
H	 0.1861243992	-0.258000501	-2.1674937579	 0.128141
H	 1.745648139	-0.0792790957	-1.3332813741	 0.138841
H	 1.1383160341	-3.5730108541	-0.1253832351	 0.139575
H	 0.1736701524	-0.3508166772	 2.11882787	 0.134795
80.2332	150.3647	182.9976	216.1452	240.3021	291.2459	403.7258	428.6465	490.8125	508.0536	613.6216	625.3957	772.189	879.1911	908.7286	935.4028	958.3809	988.1639	1000.7638	1017.8768	1109.1149	1135.3044	1182.6828	1196.0311	1253.8964	1300.4169	1322.8818	1342.9223	1373.9876	1403.6617	1412.1007	1423.6649	1496.2797	1501.2516	1508.2986	1718.0578	2354.3964	3029.1149	3036.1204	3040.6139	3044.8667	3107.8792	3110.6489	3117.5603	3167.3475
CC1COC=NC1C#N	C[C@H]1COC=N[C@H]1C#N	
InChI=1S/C6H8N2O/c1-5-3-9-4-8-6(5)2-7/h4-6H,3H2,1H3	InChI=1S/C6H8N2O/c1-5-3-9-4-8-6(5)2-7/h4-6H,3H2,1H3/t5-,6-/m0/s1
