22
gdb 113790	2.50912	1.20695	1.02317	1.8281	82.01	-0.2413	0.0771	0.3184	1305.7921	0.193026	-404.311907	-404.30206	-404.301116	-404.346716	36.58	
C	-0.0520085519	 0.8261055953	 1.7176594171	-0.387382
C	-0.0474680548	 0.3056029555	 0.274491148	-0.236116
C	-1.3298636859	-0.4201541608	-0.0640875721	 0.08618
O	-1.4309358879	-1.0634704971	-1.3472932628	-0.273731
C	-1.4798890274	-1.8834633957	-0.1767335485	-0.036321
C	-0.3583038313	-2.8743851912	 0.0018552528	 0.308057
C	-0.1214556728	-3.3157264748	 1.4303925334	-0.459458
C	-0.118414793	-3.8195034813	-1.1212642528	-0.27929
N	 0.8373910947	-2.7297663257	-0.8405725557	-0.35414
H	 0.867284425	 1.3772619899	 1.9337952972	 0.122528
H	-0.8954365047	 1.502519979	 1.8950821378	 0.11837
H	-0.1279119907	 0.0062043016	 2.4393734887	 0.125173
H	 0.058240463	 1.1502384463	-0.4183498585	 0.109101
H	 0.8130880523	-0.3482385406	 0.112273481	 0.12983
H	-2.2339969441	 0.137011594	 0.1950967647	 0.089021
H	-2.4702235153	-2.2948760617	 0.0344065094	 0.091803
H	-1.0254135381	-3.7641921393	 1.8583784031	 0.115694
H	 0.6815109163	-4.0556317949	 1.4687588074	 0.131698
H	 0.1677559242	-2.4700420238	 2.0633871617	 0.12525
H	 0.2483218829	-4.8213956855	-0.9144513139	 0.112974
H	-0.7446684285	-3.7318298126	-2.0051024969	 0.120331
H	 0.6574333178	-1.9832554769	-1.510703361	 0.240428
73.5039	82.6356	140.5125	180.5012	185.5008	228.55	280.9301	321.7297	336.4207	389.1355	435.7399	534.2001	556.0144	722.8653	771.1273	828.8747	845.58	859.239	933.4482	942.2128	948.0463	1005.2046	1027.12	1038.5454	1047.4941	1093.2672	1106.8341	1121.3095	1143.6359	1179.7835	1186.0777	1277.9711	1289.5876	1306.1272	1322.1444	1345.4803	1375.7142	1410.3187	1412.6091	1420.552	1475.1077	1484.7978	1489.3473	1496.8647	1500.6437	1507.9625	1511.2192	3031.0443	3031.6376	3035.5012	3066.7053	3079.6386	3089.9309	3092.8583	3106.1983	3110.978	3114.3102	3123.4388	3193.957	3479.8011
CCC1OC1C1(C)CN1	CC[C@H]1O[C@H]1[C@@]1(C)CN1	
InChI=1S/C7H13NO/c1-3-5-6(9-5)7(2)4-8-7/h5-6,8H,3-4H2,1-2H3	InChI=1S/C7H13NO/c1-3-5-6(9-5)7(2)4-8-7/h5-6,8H,3-4H2,1-2H3/t5-,6-,7-/m1/s1
