19
gdb 110475	4.22633	1.33308	1.31597	1.7491	77.09	-0.2206	0.0683	0.2889	1046.8377	0.160899	-381.968582	-381.961482	-381.960538	-382.000226	28.554	
C	-0.0050889857	 1.5707505085	-0.0942396498	-0.381212
C	 0.0479213995	 0.0669795437	 0.1662343199	-0.127315
N	-1.2727863169	-0.540619844	 0.0587468227	-0.072245
C	-1.8910241612	-0.7193314749	-1.2732810884	-0.055916
C	-1.0654596303	-1.7642616401	-2.091141424	-0.05814
N	-1.9698984354	-2.9205612403	-1.7781213538	-0.182749
C	-0.7033110795	-2.7104228327	-1.0016112295	-0.059559
C	-1.3991863426	-2.0023121582	 0.2068144383	-0.05448
C	-2.6214885442	-1.9870198926	-0.7513551002	 0.002675
H	 0.9844855147	 2.0195632468	 0.033248635	 0.114806
H	-0.3364997919	 1.7854884542	-1.1158190092	 0.116738
H	-0.7007100324	 2.0574580723	 0.595294986	 0.126397
H	 0.7692296829	-0.4084473522	-0.5224753063	 0.085907
H	 0.4111805919	-0.1214967423	 1.1841584271	 0.100958
H	-2.3385881741	 0.1399365865	-1.7685133652	 0.081004
H	-0.5556824206	-1.68133113	-3.0427058901	 0.097216
H	 0.111590502	-3.4224436712	-1.037058898	 0.097138
H	-1.3437592727	-2.433538081	 1.2051618017	 0.078405
H	-3.6701519934	-2.0795793923	-0.483940646	 0.090374
86.1199	162.4305	203.4694	275.3398	378.9685	567.4387	611.9186	698.6267	779.7795	786.8145	806.288	815.5178	819.9643	848.1948	865.1199	891.7321	892.4211	929.8485	950.968	978.4914	1006.6214	1032.378	1068.5859	1098.5418	1126.5462	1138.194	1170.2331	1175.9196	1195.0829	1214.5683	1220.8344	1244.1073	1275.0057	1289.5507	1308.8354	1341.6465	1391.3956	1412.4295	1491.68	1495.4814	1511.7538	2945.3422	3038.0739	3042.9254	3105.1388	3118.6483	3128.9854	3137.9566	3163.0794	3187.8179	3199.563
CCN1C2C3N4C3C1C24	CCN1[C@H]2[C@@H]3N4[C@@H]3[C@@H]1[C@@H]24	
InChI=1S/C7H10N2/c1-2-8-3-5-4(8)7-6(3)9(5)7/h3-7H,2H2,1H3	InChI=1S/C7H10N2/c1-2-8-3-5-4(8)7-6(3)9(5)7/h3-7H,2H2,1H3/t3-,4+,5-,6+,7-,9?
