19
gdb 12668	2.77755	2.0982	1.38128	3.7304	72.17	-0.2328	0.0385	0.2713	950.4896	0.166488	-365.122252	-365.113926	-365.112981	-365.154927	30.607	
C	 0.4336255482	 1.5856710415	-0.1270170895	-0.392835
C	-0.0134140769	 0.1284110255	 0.0486092574	 0.034264
C	 0.3758154103	-0.7820258135	-1.1456484313	-0.233468
C	 1.6630230781	-1.4864933449	-0.6919814859	-0.332942
C	 1.6028341693	-1.4406910881	 0.834591863	 0.406675
O	 2.2871383501	-2.0721608237	 1.6142522226	-0.396727
N	 0.6356150388	-0.5304724478	 1.1769578547	-0.060415
C	 0.3443146877	-0.2035160722	 2.5529984193	-0.3494
H	 1.5078302328	 1.6443768173	-0.3319733839	 0.122238
H	-0.102020452	 2.0469834954	-0.9628606498	 0.119706
H	 0.2269038116	 2.1791543897	 0.7686888003	 0.121038
H	-1.1004469642	 0.1156033346	 0.2046625467	 0.078591
H	-0.4139826004	-1.5189845171	-1.3168760678	 0.112234
H	 0.4952631554	-0.2071543904	-2.0667049386	 0.106114
H	 1.7545103293	-2.5182871485	-1.0355599057	 0.129281
H	 2.5678385618	-0.9585018618	-1.0132351423	 0.128461
H	 0.9327983975	-0.8767189931	 3.1789934706	 0.165243
H	 0.61417276	 0.8316404896	 2.7960351277	 0.122478
H	-0.7221006276	-0.3408151123	 2.7705318625	 0.119461
95.4643	133.8608	152.7941	176.7436	250.6898	297.5085	347.6913	428.965	486.4944	570.9892	640.2131	661.055	749.0514	792.6085	894.8828	954.6255	971.7414	1001.1889	1051.648	1096.6854	1110.9566	1128.8244	1161.9426	1196.2869	1229.1456	1273.1381	1297.7888	1306.6822	1341.3072	1381.647	1407.1453	1426.6253	1451.0215	1474.2492	1489.639	1494.0303	1501.3025	1503.8191	1522.8314	1804.6536	3006.1194	3014.8612	3035.0076	3054.7088	3062.3039	3062.4657	3105.3518	3108.6393	3110.4486	3121.494	3140.6282
CC1CCC(=O)N1C	C[C@H]1CCC(=O)N1C	
InChI=1S/C6H11NO/c1-5-3-4-6(8)7(5)2/h5H,3-4H2,1-2H3	InChI=1S/C6H11NO/c1-5-3-4-6(8)7(5)2/h5H,3-4H2,1-2H3/t5-/m0/s1
