13
gdb 19104	5.28874	2.19734	2.10079	3.2286	59.81	-0.2409	-0.0294	0.2115	660.0696	0.097162	-361.372166	-361.366986	-361.366042	-361.401318	21.039	
O	 0.0151570396	-0.0156868106	 0.0976154779	-0.31324
C	-0.0110499531	 1.1763129279	 0.0797755188	 0.468192
C	-1.0818247389	 2.2744041183	-0.0188107369	-0.145084
C	-0.8206337959	 3.232802921	 1.143980095	-0.093299
C	 0.7448232542	 3.2670674838	 1.116757727	-0.09326
C	-0.0733367337	 4.1795461664	 0.2634026214	-0.017024
N	-0.0692514865	 3.1193190438	-0.8439856993	-0.190088
C	 1.0069794385	 2.3198210114	-0.0549363699	-0.145096
H	-2.0842897853	 2.110412942	-0.4074821164	 0.102685
H	-1.3863492461	 3.4063316218	 2.0489906016	 0.107081
H	 1.333536585	 3.4659141637	 2.0016668298	 0.107076
H	-0.099369146	 5.2507215392	 0.1155869658	 0.109384
H	 2.0015784082	 2.1992226413	-0.4781620048	 0.102674
153.9389	376.1777	566.9635	589.7158	680.502	757.1106	780.3071	790.2555	806.3156	826.8089	866.2877	898.0568	923.5756	952.9103	982.9692	1023.6629	1024.8114	1071.3458	1077.5411	1093.4487	1135.9356	1172.4944	1193.5588	1213.2242	1231.8663	1259.6212	1362.3987	1909.6011	3149.3198	3151.1205	3199.7062	3207.108	3220.3625
O=C1C2C3C4C3N2C14	O=C1[C@H]2[C@H]3[C@@H]4[C@H]3N2[C@H]14	
InChI=1S/C6H5NO/c8-6-4-1-2-3(1)7(4)5(2)6/h1-5H	InChI=1S/C6H5NO/c8-6-4-1-2-3(1)7(4)5(2)6/h1-5H/t1-,2+,3-,4+,5-
