17
gdb 44442	3.01097	1.78602	1.56941	3.3329	70.	-0.2257	-0.0175	0.2082	896.6016	0.138725	-421.847186	-421.840684	-421.83974	-421.878074	26.666	
O	 0.003064359	 0.0360171403	-0.477348212	-0.324667
C	-0.0139109286	 1.1689967888	-0.0662946563	 0.420289
C	-1.2912205373	 1.9116249494	 0.3346781181	-0.341041
C	-1.007762699	 3.355016284	 0.712902903	-0.095453
C	 0.1126353123	 4.1220854196	 0.0102243598	-0.111653
C	 1.0628415013	 3.275879338	-0.8200471008	-0.258509
C	 1.2271191224	 2.0414431093	 0.0988221702	-0.04034
O	 1.2035001204	 2.5585454515	 1.4390878193	-0.264415
C	 0.2902536228	 3.6347261557	 1.4228516365	 0.102024
H	-2.0004299431	 1.8375357203	-0.4979143526	 0.136188
H	-1.7458045147	 1.3700365568	 1.1729830751	 0.142904
H	-1.8673592149	 3.9458952571	 1.0128549767	 0.094035
H	-0.0212537941	 5.1707470585	-0.2237862144	 0.094847
H	 0.6790514598	 2.996277384	-1.8062757861	 0.119748
H	 2.019049825	 3.7905652182	-0.9570298712	 0.117886
H	 2.140209652	 1.4632868951	-0.0419052478	 0.10209
H	 0.3701627167	 4.2613527535	 2.3016555026	 0.106067
91.2547	253.5767	339.8332	432.8108	456.6456	479.554	596.4852	629.4642	686.5155	727.63	779.2566	783.8863	847.3857	912.3316	925.0001	945.2498	964.7805	998.1974	1028.2295	1040.5704	1067.8907	1079.6689	1102.0222	1137.3268	1166.5319	1206.6143	1232.4215	1245.6075	1282.485	1314.5219	1319.0755	1334.555	1354.9186	1420.8473	1446.6184	1493.0814	1836.8722	3038.0702	3049.3546	3074.3382	3093.1351	3127.0988	3158.0447	3189.5144	3203.8043
O=C1CC2C3CC1OC23	O=C1C[C@@H]2[C@@H]3C[C@H]1O[C@H]23	
InChI=1S/C7H8O2/c8-5-1-3-4-2-6(5)9-7(3)4/h3-4,6-7H,1-2H2	InChI=1S/C7H8O2/c8-5-1-3-4-2-6(5)9-7(3)4/h3-4,6-7H,1-2H2/t3-,4+,6-,7-/m1/s1
