23
gdb 101736	3.32077	0.82564	0.78552	2.272	82.88	-0.2486	0.0757	0.3243	1596.9162	0.204676	-425.409892	-425.399761	-425.398817	-425.446086	37.259	
C	-0.5640253083	 1.3367122011	-0.0468793239	-0.394316
C	-0.0060590418	-0.0867146631	-0.0654647083	 0.107286
C	 0.8377968071	-0.3653446918	-1.3123610056	-0.062235
O	 1.9923808534	 0.4509058533	-1.3503932093	-0.422277
O	 0.8886307476	-0.3158720491	 1.0286216338	-0.289988
C	 0.2908494451	-0.6051163925	 2.2655110615	 0.172589
C	-0.2731352355	-2.033811779	 2.5179507288	-0.244029
C	 0.3701663217	-1.9682838291	 3.9315235734	-0.218849
C	 1.288943527	-0.8246179152	 3.4189111472	-0.248877
H	 0.2485596811	 2.0523798649	-0.1928518903	 0.135942
H	-1.2921681472	 1.4685684807	-0.8538644557	 0.113713
H	-1.0689180871	 1.5611594542	 0.8967010498	 0.11406
H	-0.8278875282	-0.8183940909	-0.0286381385	 0.068388
H	 1.1033016867	-1.4338378464	-1.3268240809	 0.086079
H	 0.2595355732	-0.1465266786	-2.216170217	 0.102701
H	 2.4138601942	 0.3410820577	-0.4892374164	 0.290946
H	-0.4555961136	 0.1573516183	 2.5293895082	 0.069173
H	-1.3517348378	-2.1916065127	 2.4465670027	 0.094693
H	 0.2417693303	-2.7558505503	 1.8772812119	 0.106716
H	-0.3380372031	-1.6174352963	 4.6869200018	 0.10548
H	 0.8543293463	-2.8722237856	 4.3048109927	 0.103897
H	 2.2291715326	-1.2156966797	 3.0197996169	 0.110042
H	 1.5030041463	 0.0167526002	 4.081257047	 0.098867
34.4355	68.2448	97.037	143.4195	192.8228	214.3049	261.8063	309.6838	403.4586	421.137	447.6979	484.7035	595.9502	685.8901	769.4299	787.8834	828.6281	900.6726	917.9566	924.9642	933.6455	944.8602	992.7943	1007.009	1058.9745	1084.9375	1134.2841	1142.5449	1152.0064	1172.8009	1191.6983	1237.2855	1245.2335	1250.7369	1259.1411	1273.9301	1303.4544	1341.6793	1358.6013	1385.8646	1409.8568	1413.1419	1437.4739	1472.4435	1485.8804	1487.9419	1497.117	1501.2289	1509.3822	2977.9901	2993.6609	3001.8896	3044.3351	3056.8018	3062.9165	3067.093	3076.5646	3108.601	3110.1858	3116.1146	3128.9057	3132.3491	3788.774
CC(CO)OC1CCC1	C[C@@H](CO)OC1CCC1	
InChI=1S/C7H14O2/c1-6(5-8)9-7-3-2-4-7/h6-8H,2-5H2,1H3	InChI=1S/C7H14O2/c1-6(5-8)9-7-3-2-4-7/h6-8H,2-5H2,1H3/t6-/m0/s1
