19
gdb 41405	2.46884	2.04084	1.42991	0.8563	73.94	-0.243	0.0704	0.3134	959.0956	0.161558	-423.003147	-422.996107	-422.995163	-423.034432	28.529	
C	 0.0228902541	 1.5410137198	 0.1908432198	-0.239788
C	 1.5434614255	 1.6178552717	-0.1500565612	-0.317208
C	 1.6057864481	 0.1166593508	 0.1266727938	 0.438317
O	 2.519360634	-0.7862202262	-0.4951540752	-0.332411
C	 2.6735586742	-1.5431041604	 0.7320018283	-0.129105
C	 1.8494230275	-0.4920089216	 1.5219564838	 0.007793
O	 0.6224965857	-0.8554737156	 2.1073478481	-0.267664
C	-0.3796959851	-0.9443976373	 1.0827445327	-0.116451
C	 0.0679206197	-0.0032012727	-0.0308055142	-0.082519
H	-0.1836097112	 1.7967579267	 1.2331717482	 0.115551
H	-0.6528562682	 2.1050042145	-0.4533573938	 0.105327
H	 1.7041544531	 1.826200493	-1.2119189805	 0.116117
H	 2.1856646609	 2.2743210205	 0.4427264688	 0.10013
H	 2.2066724295	-2.5335690868	 0.6750997539	 0.10689
H	 3.7269837454	-1.6481169074	 1.0116045926	 0.107875
H	 2.4210774071	 0.0816647795	 2.2541972943	 0.092058
H	-0.4551147034	-1.9758890122	 0.7078787925	 0.099322
H	-1.3359167963	-0.6780747609	 1.5436702617	 0.111271
H	-0.2691894006	-0.3039187554	-1.0238781338	 0.084496
136.6942	180.5831	248.5123	286.9395	399.0174	421.2218	498.5635	616.4271	694.2784	728.6949	787.7106	812.8252	846.5417	872.8249	903.1749	925.076	957.4477	997.0734	1004.2185	1031.2422	1052.4406	1094.4492	1121.7766	1136.9424	1139.5923	1165.4509	1189.7626	1214.3628	1223.9571	1239.5023	1249.4315	1270.1454	1294.8733	1328.9786	1333.0238	1359.1198	1397.0901	1479.198	1496.7124	1510.2049	1521.3985	2995.5941	3027.8161	3056.2729	3071.7122	3077.8255	3078.0307	3096.6002	3104.1543	3107.9249	3132.3831
C1CC23OCC2OCC13	C1C[C@@]23OC[C@@H]2OC[C@@H]13	
InChI=1S/C7H10O2/c1-2-7-5(1)3-8-6(7)4-9-7/h5-6H,1-4H2	InChI=1S/C7H10O2/c1-2-7-5(1)3-8-6(7)4-9-7/h5-6H,1-4H2/t5-,6+,7+/m1/s1
