15
gdb 130325	3.13317	1.32704	0.99735	4.1417	68.19	-0.2466	-0.0368	0.2099	1139.3051	0.114259	-450.055724	-450.048008	-450.047063	-450.088654	28.525	
N	-0.0627148468	 1.3852738575	-0.2571932142	-0.592057
C	 0.022016139	 0.0220617043	-0.0569110206	 0.268232
N	-1.0145756475	-0.7744146509	-0.0223542793	-0.161687
O	-0.4949964111	-2.0455045363	 0.1038616019	-0.164628
N	 0.8654987281	-2.0168091999	 0.1587491386	-0.170083
C	 1.2169522523	-0.7641525405	 0.0640603883	 0.335405
C	 2.6211628662	-0.3140071549	 0.0820886	-0.140845
C	 3.4773548894	-0.6104162414	 1.2740851111	-0.227043
N	 3.7049907485	-1.3003190408	 0.0040480602	-0.305555
H	 0.5929001654	 1.9305199597	 0.2843277839	 0.263966
H	-1.0052557354	 1.7421430046	-0.1750044865	 0.269479
H	 2.8041725518	 0.6001916162	-0.4780804454	 0.108838
H	 4.2523400119	 0.0938207757	 1.563904749	 0.127034
H	 3.0111407109	-1.1540901698	 2.090984045	 0.130624
H	 3.3005986674	-2.2342393535	 0.0366873882	 0.258319
49.5798	152.6168	173.1154	275.0227	302.1741	317.831	465.3194	506.2231	610.8974	631.8026	671.5394	758.7339	787.1072	839.1334	892.6222	923.1275	951.004	974.573	1004.6114	1054.7583	1113.1826	1142.5227	1153.9942	1185.721	1224.4025	1275.2444	1311.4196	1415.6987	1470.5214	1504.1812	1560.6163	1626.8076	1665.5006	3110.3283	3133.4505	3202.6994	3500.1784	3558.8336	3656.762
NC1=NON=C1C1CN1	Nc1nonc1[C@H]1CN1	
InChI=1S/C4H6N4O/c5-4-3(2-1-6-2)7-9-8-4/h2,6H,1H2,(H2,5,8)	InChI=1S/C4H6N4O/c5-4-3(2-1-6-2)7-9-8-4/h2,6H,1H2,(H2,5,8)/t2-/m1/s1
