17
gdb 81114	2.65842	1.72386	1.29562	4.0796	77.62	-0.231	-0.0131	0.2179	1000.1917	0.136372	-380.81907	-380.811464	-380.810519	-380.850797	30.178	
C	-0.2439633254	 1.4582174432	-0.0161791627	-0.344455
N	 0.0100183917	 0.0199207616	 0.007194045	-0.117698
C	 1.2185245306	-0.4725285737	-0.7901347133	-0.070976
C	 2.151558011	-0.0345755276	 0.3816838985	-0.262422
C	 0.8750549537	-0.50694542	 1.163647523	 0.211186
C	 0.8569951115	-2.0049679208	 0.8030170566	-0.103604
C	 1.088301867	-1.9738922732	-0.5094288437	-0.074624
C	 0.5758628585	-0.0883260847	 2.5142214806	 0.153037
N	 0.3435316463	 0.2665295165	 3.5895946555	-0.34241
H	 0.6312348925	 2.1165793614	 0.1004068473	 0.103277
H	-0.7226990358	 1.6972029453	-0.9711170623	 0.129541
H	-0.9542170205	 1.6965721328	 0.7812582427	 0.14511
H	 1.3331730896	-0.1171832694	-1.8124219284	 0.08431
H	 3.0744670183	-0.5920433534	 0.5491307068	 0.115794
H	 2.3286503453	 1.0399003659	 0.4427788523	 0.121515
H	 0.6654947552	-2.8161268967	 1.4878906149	 0.131313
H	 1.1466883004	-2.7768067472	-1.2284663929	 0.121106
134.4167	160.2165	207.5634	300.0469	304.6535	468.0357	501.6898	505.3971	538.2822	558.5713	595.6689	675.4319	716.2538	799.1774	837.5501	883.3668	900.4601	915.9575	942.6412	992.9856	1049.2213	1060.1852	1104.8864	1125.9116	1162.7263	1179.2111	1209.4018	1230.5544	1246.1224	1275.6027	1318.9197	1442.6206	1478.7684	1498.9265	1517.9822	1621.4614	2356.6931	2976.9635	3070.5146	3083.2534	3109.7035	3143.228	3148.1726	3241.8593	3269.1827
CN1C2CC1(C=C2)C#N	CN1[C@H]2C[C@@]1(C=C2)C#N	
InChI=1S/C7H8N2/c1-9-6-2-3-7(9,4-6)5-8/h2-3,6H,4H2,1H3	InChI=1S/C7H8N2/c1-9-6-2-3-7(9,4-6)5-8/h2-3,6H,4H2,1H3/t6-,7+/m1/s1
