15
gdb 67616	2.7673	2.23953	1.70622	1.6867	61.4	-0.2377	0.066	0.3037	805.6422	0.114364	-457.7091	-457.703171	-457.702226	-457.73909	25.185	
O	-0.0345672352	 1.3415927149	 0.1188232829	-0.464743
C	 0.0667644493	-0.0335727136	 0.0578561244	 0.362041
C	-0.3510979621	-0.897614648	-1.1100634671	-0.021851
O	 0.4921118992	-2.0235788486	-1.2168709204	-0.232103
C	 0.7880574965	-2.2295813126	 0.1308425075	 0.049688
C	-0.4856515106	-2.0579501068	 1.0355146537	 0.033523
O	 0.333218725	-1.370435873	 2.0178259316	-0.284255
C	 1.0742606641	-0.8802597027	 0.8728888726	-0.05587
C	-1.1403588842	-0.9558167692	 0.1881767982	-0.177765
H	 0.6087960549	 1.7226163411	-0.4889148348	 0.290598
H	-0.7438934894	-0.5235911178	-2.0465056865	 0.116283
H	 1.4476419966	-3.0771293219	 0.2909574667	 0.104963
H	-1.0926171225	-2.8641211404	 1.441822213	 0.087221
H	 2.053257097	-0.4652454645	 1.1073041365	 0.082743
H	-2.1585285586	-0.6092784668	 0.2881117718	 0.109528
234.2242	302.3896	327.8756	485.8079	516.3445	598.2029	618.6304	694.4573	722.9201	765.2728	832.0397	840.4527	857.5454	899.8918	916.981	934.7301	948.4668	965.9741	1004.7603	1023.0194	1067.2797	1094.4791	1114.3448	1161.1917	1181.5685	1215.5534	1231.139	1235.4856	1287.4653	1297.3234	1317.2456	1349.4443	1453.9335	3138.5396	3147.9257	3179.7125	3209.1756	3231.2846	3796.7383
OC12C3OC4C(OC14)C23	O[C@@]12[C@H]3O[C@@H]4[C@@H](O[C@H]14)[C@@H]23	
InChI=1S/C6H6O3/c7-6-1-2-3(5(6)8-2)9-4(1)6/h1-5,7H	InChI=1S/C6H6O3/c7-6-1-2-3(5(6)8-2)9-4(1)6/h1-5,7H/t1-,2+,3-,4+,5+,6+/m1/s1
