20
gdb 76377	2.39489	1.17337	1.14761	5.5291	75.63	-0.2436	0.0256	0.2692	1233.9952	0.169965	-440.318436	-440.30851	-440.307566	-440.353036	36.663	
C	-0.1102236942	 0.921680514	-2.014906845	-0.430458
C	 0.0110385852	-0.2404140307	-1.0555944404	-0.036528
C	 1.3013180459	-0.669150693	-0.4223246942	-0.036561
C	 2.627929391	 0.0118060505	-0.6710264736	-0.430451
C	 0.221928177	-0.0149737327	 0.4435678438	 0.08352
N	 0.3877079557	 1.3100164772	 1.0028767435	-0.612553
H	-0.0542425318	 2.0323458905	 0.4464810226	 0.247702
H	-0.5886963024	 0.5249829289	 2.4589400934	 0.30161
H	 1.359296485	 1.562662394	 1.1401301027	 0.247705
C	-0.5366956672	-0.9565923962	 1.3518257065	 0.432536
O	-0.9190417941	-0.3975770885	 2.5080611915	-0.382488
O	-0.778367469	-2.1035375219	 1.067795486	-0.364612
H	 0.5783309354	 1.7400735566	-1.786991916	 0.11128
H	 0.1043331583	 0.5949470251	-3.0377266548	 0.132502
H	-1.1275676102	 1.3289724252	-2.0097450477	 0.126593
H	-0.6765523083	-1.057398867	-1.2528964316	 0.119913
H	 1.3729344073	-1.7384107842	-0.2470167315	 0.119915
H	 2.5343307468	 1.0900407596	-0.8274416329	 0.111286
H	 3.3127270229	-0.1462106688	 0.169801407	 0.12659
H	 3.1074016466	-0.4032366388	-1.5636600792	 0.1325
72.571	144.913	151.6367	153.7243	207.8953	218.2515	237.0841	291.3673	330.9555	385.3114	465.6098	516.887	543.1962	610.1247	705.8853	743.749	796.9615	816.3114	840.1511	847.7105	965.1368	1027.39	1028.7643	1033.943	1042.0788	1130.2249	1135.8679	1184.7152	1200.7738	1231.946	1245.6765	1324.3329	1368.025	1413.6429	1416.0682	1422.552	1443.9691	1489.3245	1492.5958	1503.1244	1512.7413	1653.274	1848.321	3032.1458	3035.8102	3092.225	3093.6618	3102.788	3110.7523	3157.9012	3164.5273	3502.6852	3521.6046	3597.2794
CC1C(C)C1([NH3+])C([O-])=O	C[C@H]1[C@@H](C)[C@]1(N)C(=O)O	
InChI=1S/C6H11NO2/c1-3-4(2)6(3,7)5(8)9/h3-4H,7H2,1-2H3,(H,8,9)	InChI=1S/C6H11NO2/c1-3-4(2)6(3,7)5(8)9/h3-4H,7H2,1-2H3,(H,8,9)/t3-,4+,6-
