19
gdb 62823	2.15662	1.58395	1.37956	2.236	76.45	-0.25	-0.0414	0.2086	1067.202	0.155998	-422.966554	-422.957395	-422.956451	-423.000881	33.973	
C	-0.0715321246	 1.5993298761	 0.0393295653	-0.476725
C	 0.0092611573	 0.0763638035	 0.0409574392	 0.307741
C	-1.3837701929	-0.5327133367	-0.0957960344	-0.466181
C	 1.1578561858	-0.6707690758	-0.721126388	 0.00276
C	 2.2149242453	-0.1443801587	 0.2755903013	-0.274117
C	 0.9762791183	-0.6608342495	 1.0588396602	 0.286529
O	 0.9688363294	-1.8434375125	 0.1722328566	-0.342691
C	 0.79930232	-0.8727952514	 2.5257124605	 0.029985
O	 0.782284151	 0.0312031357	 3.3230493246	-0.253194
H	 0.8936212897	 2.1033007108	 0.0926757454	 0.122123
H	-0.5757328117	 1.9417531092	-0.8712635667	 0.12172
H	-0.670137634	 1.9398684593	 0.8903567024	 0.138281
H	-1.8424469562	-0.2141833652	-1.0386299555	 0.115763
H	-1.3450573024	-1.621408643	-0.0769839243	 0.140654
H	-2.0358346137	-0.1852909364	 0.7130620595	 0.120963
H	 1.2574339895	-0.8794440043	-1.7873206645	 0.096992
H	 3.0893165071	-0.7871573156	 0.3747171313	 0.116527
H	 2.4637257682	 0.9141865399	 0.3069804168	 0.114714
H	 0.6713263939	-1.9366538953	 2.8248165605	 0.098159
37.0608	124.1962	140.2801	171.7248	233.6559	257.9412	349.3511	388.8979	409.1324	456.6968	534.1231	604.8971	673.2999	695.1426	742.9173	789.578	902.3963	917.6738	951.5529	959.703	997.8208	1005.6696	1031.2475	1051.2932	1103.2233	1153.3962	1194.4394	1198.6942	1212.4158	1242.4793	1273.8737	1311.1489	1398.136	1403.7612	1422.0314	1476.9475	1485.6826	1495.5357	1511.2309	1514.277	1816.8677	2892.2362	3034.901	3042.2361	3089.3731	3096.2528	3098.9798	3111.6233	3139.4561	3153.2536	3176.4258
CC1(C)C2CC1(O2)C=O	CC1(C)[C@H]2C[C@@]1(O2)C=O	
InChI=1S/C7H10O2/c1-6(2)5-3-7(6,4-8)9-5/h4-5H,3H2,1-2H3	InChI=1S/C7H10O2/c1-6(2)5-3-7(6,4-8)9-5/h4-5H,3H2,1-2H3/t5-,7-/m1/s1
