20
gdb 122607	4.2681	0.67971	0.61016	3.4659	77.92	-0.245	-0.0259	0.2191	1823.2559	0.169082	-440.262908	-440.252997	-440.252053	-440.29915	34.503	
C	 0.0170046387	 1.4352937342	-0.012177754	-0.228376
O	-0.1891981892	 0.0511916796	-0.1549457637	-0.229037
C	 0.680099612	-0.5393699197	-1.0943217462	-0.054423
C	 0.3979579598	-2.0351952183	-1.1404630344	-0.193335
C	 1.2975287397	-2.7625568206	-2.1314600595	-0.105363
N	 2.7361673263	-2.8851971629	-1.7437730456	-0.325175
C	 2.7607161609	-4.3543466957	-1.9787627558	-0.28397
C	 1.2343196684	-4.3020134731	-2.1527553043	 0.385853
O	 0.3573169159	-5.1072621439	-2.2324739278	-0.284786
H	 1.0390566827	 1.6639683337	 0.3301679864	 0.103223
H	-0.1546509894	 1.9751463167	-0.9575345436	 0.101368
H	-0.6942674709	 1.7977187856	 0.7340029904	 0.12765
H	 0.5310934765	-0.0892547778	-2.0931426215	 0.076675
H	 1.7321059332	-0.364061135	-0.8123032561	 0.09562
H	 0.5431811287	-2.4553042394	-0.1399699056	 0.114255
H	-0.6479373664	-2.2025482388	-1.4211623854	 0.120943
H	 1.1462993338	-2.3637778767	-3.1478970509	 0.092884
H	 3.3672472919	-2.3692712193	-2.3448876715	 0.225229
H	 3.2700961696	-4.6868262162	-2.8939923102	 0.124112
H	 3.1341281178	-4.9468620724	-1.1364795507	 0.136652
50.8312	76.8497	90.3677	116.8984	132.555	203.9992	232.4737	298.2652	384.359	430.7892	506.7338	559.2742	653.6304	748.0965	805.1649	824.2022	923.3507	972.4702	995.533	1007.9429	1062.0014	1076.2435	1091.0699	1107.2947	1154.0435	1166.6185	1184.3862	1210.1501	1227.8973	1240.5114	1269.9492	1306.7442	1321.7933	1363.2646	1372.3637	1425.5854	1474.2937	1479.625	1480.7417	1485.1438	1503.964	1533.4016	1914.9057	2934.0814	2966.4245	2974.6118	2977.1852	3008.8646	3012.5329	3048.0176	3070.7799	3097.1407	3113.6483	3549.5422
COCCC1NCC1=O	COCC[C@H]1NCC1=O	
InChI=1S/C6H11NO2/c1-9-3-2-5-6(8)4-7-5/h5,7H,2-4H2,1H3	InChI=1S/C6H11NO2/c1-9-3-2-5-6(8)4-7-5/h5,7H,2-4H2,1H3/t5-/m1/s1
