15
gdb 32032	3.95523	1.22906	0.94328	4.5264	74.85	-0.2341	-0.0416	0.1925	1190.197	0.114559	-450.173857	-450.165687	-450.164743	-450.20771	28.746	
C	 0.0880981239	 1.4183509755	-0.0543690389	-0.337831
N	-0.091984139	-0.020063563	-0.1224320193	-0.361363
C	-1.274788589	-0.6369582392	-0.0113760163	 0.558561
N	-2.3983100422	 0.0070420416	 0.1719609763	-0.380998
C	-3.4848007993	-0.8110873609	 0.2580954905	 0.072394
N	-3.5228454841	-2.1070218881	 0.1809167183	-0.317809
C	-2.3275376458	-2.7629885832	-0.0123034839	 0.425729
N	-2.1114536713	-4.0019430728	-0.1181387893	-0.527536
O	-1.1574335222	-1.9656580763	-0.1103475293	-0.232902
H	 0.7458056096	 1.6871569515	 0.7783448277	 0.140879
H	 0.5207808566	 1.7988493971	-0.985104229	 0.14088
H	-0.889907668	 1.8724451577	 0.0991773917	 0.186313
H	 0.7046770919	-0.621828836	-0.26168762	 0.2716
H	-4.4325689762	-0.297397766	 0.4108953621	 0.125463
H	-3.0046213848	-4.4850193979	-0.0353524807	 0.23662
50.0446	82.2698	126.8016	185.1477	219.5857	402.0033	425.5607	508.1731	532.9671	570.8413	643.7501	746.3647	784.5613	818.5841	866.9075	889.8036	980.5979	1011.6317	1023.188	1116.2999	1157.8231	1170.0158	1224.3583	1300.1725	1358.1584	1421.852	1445.202	1497.7405	1500.24	1550.7386	1630.61	1663.3225	1760.3599	3039.9391	3096.8468	3151.3597	3170.4164	3520.6266	3640.7993
CNC1=NC=NC(=N)O1	CN[C@@H]1N=CN=C([NH])O1	
InChI=1S/C4H6N4O/c1-6-4-8-2-7-3(5)9-4/h2H,1H3,(H2,5,6,7,8)	InChI=1S/C4H7N4O/c1-6-4-8-2-7-3(5)9-4/h2,4-6H,1H3/t4-/m1/s1
