20
gdb 107231	2.84153	1.48936	1.14909	2.6055	78.16	-0.2215	0.0662	0.2877	1119.2714	0.170631	-403.060279	-403.051808	-403.050864	-403.092935	33.546	
C	-0.1037698683	 1.5274940722	 0.0536071605	-0.501225
C	-0.0411048904	 0.028437787	-0.031178793	 0.27439
C	-0.7556094964	-0.8855258994	 0.9327044586	-0.357422
C	 0.7357914235	-0.990690078	 0.7732617567	-0.042125
N	 1.2589419314	-1.7049415997	-0.457727578	-0.199185
C	 0.1366390342	-2.1934488476	-1.2979016003	-0.287027
C	 0.4438468619	-0.7485230746	-1.2920456267	 0.220723
C	 1.1520394395	-0.0868959409	-2.4566056984	-0.144088
O	 2.1019213243	-0.9639688559	-3.0251196332	-0.416817
H	 0.8053844872	 2.0032610929	-0.3276552817	 0.126654
H	-0.9524575489	 1.9247024231	-0.5166294117	 0.123719
H	-0.2301125336	 1.8450636931	 1.0933201531	 0.121698
H	-1.0393173338	-0.388357253	 1.8565409406	 0.116051
H	-1.4596744361	-1.6535991634	 0.6349473194	 0.114175
H	 1.4288741887	-0.8729713766	 1.5973157166	 0.102827
H	 0.5029768565	-2.7494300851	-2.1547878671	 0.134412
H	-0.7542914958	-2.6077519292	-0.8439103879	 0.120032
H	 0.4410222399	 0.1778207042	-3.2482965932	 0.111256
H	 1.6268074833	 0.8472544044	-2.1165304716	 0.087554
H	 2.564433993	-1.3606179934	-2.271980053	 0.294396
112.3952	140.8206	187.3637	214.3951	293.1145	318.6882	388.3154	472.3658	482.6852	516.2077	548.0535	612.605	663.1294	721.9227	793.1219	826.8793	862.2311	902.7804	932.4301	977.9325	986.5085	1033.6446	1041.2568	1068.1448	1073.2887	1089.9863	1109.7358	1124.9018	1144.9054	1166.4954	1226.0054	1255.502	1283.5219	1337.8626	1376.8579	1391.7887	1423.6259	1445.2554	1480.6101	1487.4713	1499.5109	1511.5674	1520.4088	2975.4082	3025.3463	3052.1325	3085.2515	3103.0457	3125.1106	3145.6845	3183.5049	3201.4867	3230.4648	3724.7516
CC12CC1N1CC21CO	C[C@]12C[C@H]1N1C[C@@]21CO	
InChI=1S/C7H11NO/c1-6-2-5(6)8-3-7(6,8)4-9/h5,9H,2-4H2,1H3	InChI=1S/C7H11NO/c1-6-2-5(6)8-3-7(6,8)4-9/h5,9H,2-4H2,1H3/t5-,6+,7-,8?/m1/s1
