21
gdb 84868	2.3906	1.54687	1.07338	0.0601	91.74	-0.2301	-0.0043	0.2258	1197.3672	0.183661	-349.95988	-349.951394	-349.95045	-349.992566	33.726	
C	-1.174358709	 0.3860097302	 0.3023219003	-0.416558
C	 0.2513110048	 0.0013159944	-0.1260989359	-0.058281
C	 0.5292129221	 0.4871400765	-1.5404395538	-0.028638
C	 1.6770782617	 0.4398765608	-2.2153200794	-0.077348
C	 3.040525761	-0.0070417682	-1.7199158443	-0.296745
C	 3.1165035572	-1.2587181718	-0.8715914881	-0.053913
C	 2.9059734652	-1.2977788563	 0.449841096	-0.099501
C	 2.396180633	-0.1537117234	 1.212541239	-0.123639
C	 1.2521018941	 0.4723682931	 0.9103718786	-0.034935
H	-1.2953389254	 1.4753425482	 0.3282790182	 0.116428
H	-1.9136496855	-0.0155082235	-0.39805576	 0.113583
H	-1.4048111215	-0.0021228575	 1.2989214302	 0.114416
H	 0.3129951636	-1.0946540361	-0.1514301568	 0.100641
H	-0.3376555465	 0.8914653902	-2.0610911176	 0.079427
H	 1.666569068	 0.8087786867	-3.2388902515	 0.085091
H	 3.6879364275	-0.1455722165	-2.5919928129	 0.099693
H	 3.4755045378	 0.8239961013	-1.1475966515	 0.125398
H	 3.4401598332	-2.165231303	-1.3780115843	 0.089995
H	 3.1275315226	-2.2136736317	 0.9963504584	 0.089821
H	 2.9764544782	 0.185385881	 2.0697667344	 0.09011
H	 0.9607612579	 1.3485154554	 1.4877124709	 0.084957
89.9034	168.4535	234.0656	254.8345	272.105	294.4316	323.9612	392.6749	480.8818	549.3322	594.5283	636.3798	676.242	762.2758	793.5481	799.5202	848.6383	887.5367	922.2699	978.323	982.1406	992.2578	999.5588	1011.3632	1036.9843	1060.8248	1107.6609	1152.2005	1216.3866	1243.2468	1261.5634	1276.1797	1299.0937	1314.3643	1352.0581	1379.0405	1403.311	1422.0955	1437.9509	1470.485	1498.7316	1500.2071	1676.7141	1692.7371	1718.1593	3009.9655	3012.4203	3028.824	3064.5496	3096.5264	3108.1883	3121.1667	3125.3356	3127.9405	3147.0237	3152.2015	3158.4214
CC1C=CCC=CC=C1	C[C@H]1C=CCC=CC=C1	
InChI=1S/C9H12/c1-9-7-5-3-2-4-6-8-9/h2-3,5-9H,4H2,1H3/b3-2-,7-5-,8-6-	InChI=1S/C9H12/c1-9-7-5-3-2-4-6-8-9/h2-3,5-9H,4H2,1H3/b3-2-,7-5-,8-6-/t9-/m1/s1
