18
gdb 24148	3.66536	1.11437	1.07322	4.246	77.	-0.2275	0.0227	0.2502	1186.1294	0.150994	-398.139362	-398.131532	-398.130588	-398.172551	29.566	
C	 0.9267240398	 0.1534822307	 0.8262525786	-0.330882
C	-0.3499053243	-0.2231079564	 0.077109755	 0.022584
C	-1.2651220864	 0.7946664654	-0.4863651313	-0.237254
N	-0.4567715888	-0.0634371956	-1.380312157	-0.325354
C	 1.6318465036	 1.3759451731	 0.3235412801	 0.258229
C	 2.739643444	 1.4459426957	-0.486603318	-0.186192
N	 2.995423363	 2.7893532607	-0.6537581632	-0.228966
C	 2.0468917718	 3.46860673	 0.0483682848	 0.007396
N	 1.2113445756	 2.6531765934	 0.6472880639	-0.288508
H	 0.6774638768	 0.2964978847	 1.8844248259	 0.121145
H	 1.6176997107	-0.6972321917	 0.7773357951	 0.103747
H	-0.7874820133	-1.1535359133	 0.4356178232	 0.085435
H	-2.3343241014	 0.6035777527	-0.5180577157	 0.107209
H	-0.9842924104	 1.8370686613	-0.3729184533	 0.134305
H	 0.3449583954	 0.4749030644	-1.7068011735	 0.219536
H	 3.3609579506	 0.6867658831	-0.9323523217	 0.134149
H	 3.7483645029	 3.1901413572	-1.1873493965	 0.269749
H	 2.0196820102	 4.5474477746	 0.0875416639	 0.133674
51.7641	102.64	127.6921	292.568	317.9525	353.9632	497.099	528.4367	650.5077	676.9994	729.8055	772.0259	791.22	824.3621	847.9602	896.4294	944.0392	950.2331	982.5984	989.8351	1030.447	1095.7934	1117.3611	1133.2072	1154.4131	1187.6395	1215.021	1252.5167	1270.7038	1299.8043	1314.7587	1344.603	1364.9174	1419.8673	1455.5855	1474.6721	1514.3047	1528.2095	1591.2267	3026.6789	3065.762	3112.1331	3117.9999	3206.3615	3251.3642	3272.506	3465.7428	3666.7701
C(C1CN1)C1=CNC=N1	C([C@H]1CN1)c1c[nH]cn1	
InChI=1S/C6H9N3/c1(6-3-8-6)5-2-7-4-9-5/h2,4,6,8H,1,3H2,(H,7,9)	InChI=1S/C6H9N3/c1(6-3-8-6)5-2-7-4-9-5/h2,4,6,8H,1,3H2,(H,7,9)/t6-/m0/s1
