18
gdb 99945	2.88515	1.1153	0.97977	3.8417	72.95	-0.2851	-0.0843	0.2009	1244.7573	0.143992	-439.104833	-439.094326	-439.093382	-439.140373	36.904	
C	-0.0125645996	 1.5371415192	-0.0109952539	-0.434755
C	-0.0263618761	-0.008374273	 0.0122424404	 0.113611
C	 0.7598642694	-0.5273940141	 1.2376781472	-0.434781
C	-1.4704079696	-0.5348846502	 0.0349956531	-0.094636
O	-2.084161188	-0.0488560489	 1.2183519033	-0.429575
C	 0.6411850514	-0.5233895875	-1.2525559557	 0.298031
O	 0.1218263676	-1.2218998725	-2.0871387585	-0.290511
C	 2.055443889	-0.1085282241	-1.4406272793	 0.250735
N	 3.1564989554	 0.2083073653	-1.5972029788	-0.316051
H	 1.0085855279	 1.9276459267	-0.0134447085	 0.139334
H	-0.5330972551	 1.9254403637	-0.8923599926	 0.126043
H	-0.527343702	 1.9057054848	 0.8782580885	 0.152497
H	 0.2566933298	-0.1898033616	 2.1456755098	 0.152497
H	 0.7939628218	-1.621535233	 1.2529526933	 0.126036
H	 1.7859614746	-0.1501144479	 1.243217707	 0.139339
H	-1.999386977	-0.1906539784	-0.8647765088	 0.103546
H	-1.4595311369	-1.6335524231	 0.007865139	 0.103529
H	-2.9889061725	-0.3723571955	 1.2424422147	 0.295112
45.8374	120.7734	130.0964	173.5348	222.5128	222.7983	236.4399	239.0102	311.4196	312.9792	340.6061	376.6102	418.5929	482.701	636.2937	702.2731	766.6055	822.8928	937.4659	972.377	984.4442	1023.8456	1035.89	1102.4629	1178.9108	1198.2127	1274.4845	1284.7153	1289.8085	1393.6826	1413.7721	1461.3406	1480.9945	1489.544	1496.4131	1511.613	1520.5459	1785.0825	2335.4992	2996.1956	3032.001	3043.7119	3046.1606	3114.6398	3117.2408	3139.5123	3141.9188	3840.8745
CC(C)(CO)C(=O)C#N	CC(C)(CO)C(=O)C#N	
InChI=1S/C6H9NO2/c1-6(2,4-8)5(9)3-7/h8H,4H2,1-2H3	InChI=1S/C6H9NO2/c1-6(2,4-8)5(9)3-7/h8H,4H2,1-2H3
