19
gdb 53058	5.10757	0.72268	0.66163	1.9223	93.76	-0.22	-0.016	0.2041	1742.0953	0.157578	-385.883524	-385.873701	-385.872757	-385.92021	34.282	
C	-0.1003142557	 1.467498536	-0.0237489788	-0.507864
C	-0.015891194	 0.0160143636	-0.0097798909	 0.199301
C	 0.0723046115	-1.1882309659	-0.0011452055	-0.127478
C	 0.1040535972	-2.5996182556	 0.0274247274	 0.194072
C	 1.1334615529	-3.4263850102	-0.1871078941	-0.240234
C	 0.6982133441	-4.8582951049	-0.0504831103	 0.103013
C	 1.4706214125	-5.6661371934	 0.9934788884	-0.386574
O	-0.6830405413	-4.7795429444	 0.3226308609	-0.279467
C	-1.1309949665	-3.433010217	 0.3133378628	-0.175255
H	 0.477120294	 1.9063184938	 0.7979999459	 0.152851
H	 0.2925448094	 1.8796007797	-0.9600994933	 0.15263
H	-1.1366592777	 1.8067757408	 0.0805418769	 0.151943
H	 2.146344412	-3.1336437562	-0.430089004	 0.104883
H	 0.7747899692	-5.3802119561	-1.0210483846	 0.081211
H	 1.4414453677	-5.1634862861	 1.9644312418	 0.120105
H	 1.0255515831	-6.6593777293	 1.1001444333	 0.126703
H	 2.5159188752	-5.7877832799	 0.6904554968	 0.111142
H	-1.5855062032	-3.1804107948	 1.2818967345	 0.111604
H	-1.9009160207	-3.2836718602	-0.4601649273	 0.107415
17.7706	71.2457	88.1379	98.3042	208.0479	236.1207	288.0155	335.1088	372.011	426.8284	507.674	529.6523	539.9444	726.2347	840.5875	861.5851	867.348	918.644	972.5776	1032.1825	1045.237	1049.7295	1053.0705	1079.4327	1109.7129	1136.2139	1198.9574	1262.6576	1281.3138	1333.8472	1370.9603	1378.0972	1398.7555	1413.3836	1475.3519	1475.5391	1485.5513	1494.9984	1524.6975	1689.4872	2350.8684	2937.1029	2977.8105	3012.6495	3025.1449	3037.7441	3084.1718	3089.2155	3112.0103	3122.6424	3224.4261
CC#CC1=CC(C)OC1	CC#CC1=C[C@@H](C)OC1	
InChI=1S/C8H10O/c1-3-4-8-5-7(2)9-6-8/h5,7H,6H2,1-2H3	InChI=1S/C8H10O/c1-3-4-8-5-7(2)9-6-8/h5,7H,6H2,1-2H3/t7-/m1/s1
