19
gdb 86271	1.85278	1.64039	1.14931	1.3979	78.17	-0.246	0.0231	0.2692	1163.0771	0.156192	-422.981831	-422.971961	-422.971017	-423.016139	37.115	
C	 0.0769090125	 1.5551423827	-0.0424339381	-0.408296
C	 0.0773454277	 0.0357406697	-0.0351324265	 0.002525
C	 1.0332130347	-0.739021901	-0.9839834351	-0.302048
C	 1.2939726311	-1.7625858784	 0.1552429889	 0.123718
O	 2.5886952296	-2.2188857886	 0.3935534406	-0.434841
C	 0.7355287708	-0.6994595053	 1.1806023884	 0.176982
O	 1.8368192573	 0.0771699192	 1.6674932482	-0.476908
C	-0.115228462	-1.1505097477	 2.2638486845	 0.23121
C	-0.8066572866	-1.543047772	 3.1671819514	-0.441075
H	 1.0829706605	 1.947516945	 0.1236228362	 0.130895
H	-0.2863594785	 1.9311084037	-1.0047877129	 0.114148
H	-0.5741657344	 1.9554879141	 0.7418083874	 0.119945
H	-0.9431179628	-0.3445926874	-0.1412040344	 0.085822
H	 0.6236330603	-1.1212640689	-1.9210422515	 0.101204
H	 1.9384536434	-0.1635772446	-1.2009968329	 0.105281
H	 0.6392168857	-2.6345881516	 0.0889707054	 0.0979
H	 3.0839690724	-1.4415425456	 0.6869131621	 0.279372
H	 2.0208877457	-0.2180616487	 2.5651414398	 0.294653
H	-1.4230233673	-1.8889912146	 3.9601110684	 0.199514
86.618	116.83	144.2315	170.9369	209.5476	242.6034	271.9393	323.944	374.0453	469.4686	491.6665	511.0318	532.5926	582.7704	606.7608	616.3168	667.7718	727.8678	844.5449	904.1773	926.5517	939.7876	991.7996	1068.2268	1090.6096	1112.8077	1151.981	1163.2079	1172.4467	1223.7166	1251.3597	1288.6022	1329.8426	1347.9019	1384.6725	1407.6223	1446.0368	1485.19	1490.1574	1500.4525	2225.885	3036.594	3058.0695	3063.1653	3089.7226	3098.5591	3120.6336	3126.7709	3499.0765	3748.3436	3824.8472
CC1CC(O)C1(O)C#C	C[C@H]1C[C@@H](O)[C@]1(O)C#C	
InChI=1S/C7H10O2/c1-3-7(9)5(2)4-6(7)8/h1,5-6,8-9H,4H2,2H3	InChI=1S/C7H10O2/c1-3-7(9)5(2)4-6(7)8/h1,5-6,8-9H,4H2,2H3/t5-,6+,7-/m0/s1
