16
gdb 26506	3.71982	1.24782	1.04731	0.8643	69.83	-0.2424	-0.002	0.2404	1130.3022	0.124395	-437.896818	-437.889019	-437.888075	-437.929627	28.89	
C	-0.3592056999	 1.3355599271	-0.7886504114	-0.470569
C	-0.0618918148	 0.0341214815	-0.0800448079	 0.293345
C	 1.1236032026	-0.7652125796	-0.4509994043	-0.210225
O	 1.1100131081	 0.0125754452	 0.7479566437	-0.272163
C	-1.2225771943	-0.6565578009	 0.5346963229	 0.206056
C	-1.2943330351	-1.2803174876	 1.7363811831	-0.110404
O	-2.564336298	-1.7677045571	 1.8835759201	-0.138324
C	-3.1963172262	-1.4013716265	 0.7480129126	 0.072688
N	-2.465810132	-0.7417376876	-0.0893180667	-0.317566
H	 0.5528217899	 1.7502978313	-1.2240187251	 0.122915
H	-1.0972497295	 1.1726986407	-1.5784228484	 0.146997
H	-0.7738191851	 2.0656372465	-0.0864738056	 0.130665
H	 1.1087026342	-1.8442718293	-0.3088697618	 0.114691
H	 1.7873498229	-0.402195826	-1.2349332857	 0.115774
H	-0.6063478454	-1.4463221256	 2.5452523151	 0.163304
H	-4.2316847375	-1.6886003022	 0.6526498194	 0.152816
60.6631	150.4701	177.4013	199.3313	313.8031	358.2655	421.9083	491.6771	562.5692	645.4398	721.2461	793.9595	809.5444	847.522	869.3344	926.6803	936.616	978.4759	1026.3035	1091.9437	1102.5741	1125.301	1137.4477	1160.6871	1176.6507	1241.1807	1310.8845	1342.1054	1387.7822	1411.4253	1478.3032	1496.0494	1521.568	1554.5999	1628.3158	3046.9364	3082.2689	3116.988	3135.5173	3174.5115	3276.6784	3312.3125
CC1(CO1)C1=COC=N1	C[C@]1(CO1)c1cocn1	
InChI=1S/C6H7NO2/c1-6(3-9-6)5-2-8-4-7-5/h2,4H,3H2,1H3	InChI=1S/C6H7NO2/c1-6(3-9-6)5-2-8-4-7-5/h2,4H,3H2,1H3/t6-/m0/s1
