25
gdb 92884	2.39171	1.28468	1.05018	0.192	94.74	-0.2358	0.0319	0.2677	1327.3878	0.229116	-352.390402	-352.380681	-352.379737	-352.423992	38.758	
C	 0.039570025	 1.5987796015	-0.0216197909	-0.403552
C	 0.0297189281	 0.0675869481	-0.0374711272	 0.014849
C	 0.7629971127	-0.4925655633	-1.2667161828	-0.241235
C	 1.0018396135	-1.9759960425	-1.1650609314	-0.096674
C	 0.8984029653	-2.6640469201	-0.0293986455	-0.044807
C	 0.5585723426	-2.06293503	 1.3188521702	 0.231753
C	-0.8567122076	-2.5170245119	 1.7417745809	-0.40875
C	 1.56844596	-2.5758201379	 2.3657746025	-0.421079
C	 0.6432413446	-0.5202447674	 1.2419898612	-0.212096
H	 1.0624040425	 1.9837377509	 0.0693445857	 0.110676
H	-0.388522376	 2.0095227617	-0.9426982847	 0.108125
H	-0.5394568917	 1.99209766	 0.8207609644	 0.108827
H	-1.0159436635	-0.2632943137	-0.0997624867	 0.074051
H	 0.1933547962	-0.2688040716	-2.1783391547	 0.097748
H	 1.7261145079	 0.0276589443	-1.3928884469	 0.101057
H	 1.273645386	-2.4945364632	-2.0821425392	 0.080755
H	 1.0694706471	-3.7399231777	-0.0366542609	 0.074677
H	-0.9295060857	-3.6099919823	 1.747875249	 0.108544
H	-1.0927764958	-2.1604381057	 2.7511952742	 0.106389
H	-1.623093215	-2.1408605002	 1.0581173343	 0.114991
H	 2.5944177372	-2.3182934215	 2.0838495237	 0.112771
H	 1.3657652449	-2.1362454564	 3.3490480323	 0.107726
H	 1.5112144222	-3.6652571479	 2.4691578529	 0.106557
H	 1.6997356275	-0.2206967985	 1.2859850282	 0.085848
H	 0.1620277017	-0.0845267147	 2.1270179515	 0.082847
106.5607	140.3924	227.4884	238.1796	250.6495	257.1583	282.7723	323.0446	363.8115	384.7524	429.7273	450.645	490.6096	518.4221	674.3545	746.6886	788.7392	854.8098	886.7755	902.5399	926.5765	942.0959	952.6638	992.7711	1001.7799	1009.2167	1022.7912	1072.2028	1091.6687	1142.4974	1146.4552	1196.0253	1214.7693	1239.4133	1286.6683	1299.1854	1319.4133	1328.9543	1377.1039	1392.0663	1396.636	1404.4239	1411.2924	1429.9111	1471.3202	1480.9836	1485.2	1493.0485	1497.7191	1500.521	1501.2619	1510.0371	1722.9469	2980.301	3001.1162	3011.289	3021.3374	3023.2065	3027.2721	3032.3266	3046.9786	3087.6146	3088.9487	3092.9591	3094.671	3099.4281	3108.1354	3124.1898	3152.8736
CC1CC=CC(C)(C)C1	C[C@H]1CC=CC(C)(C)C1	
InChI=1S/C9H16/c1-8-5-4-6-9(2,3)7-8/h4,6,8H,5,7H2,1-3H3	InChI=1S/C9H16/c1-8-5-4-6-9(2,3)7-8/h4,6,8H,5,7H2,1-3H3/t8-/m0/s1
