21
gdb 94559	2.57841	1.37016	1.14751	2.8175	77.62	-0.2417	0.0783	0.32	1173.3859	0.180933	-424.191287	-424.181947	-424.181003	-424.225427	34.891	
C	-0.9759936628	 1.0651743397	 0.2567094576	-0.416001
C	-0.1985547388	-0.2362140043	 0.1585839648	 0.143556
O	 0.7297212795	-0.2169896437	-0.9534098526	-0.290024
C	 1.8706208558	-0.320748069	-0.0825111226	-0.104532
C	 0.9737110605	-0.5193582742	 1.1549363906	-0.123831
C	 1.1790830656	 0.3559477814	 2.3718121953	 0.403873
C	 0.168545881	 0.1883441113	 3.4873741973	-0.468931
C	 2.5319224472	 0.8322332412	 2.7051412315	-0.236215
O	 1.5762506641	 1.7117758552	 2.107195592	-0.267083
H	-0.312710779	 1.9129302296	 0.4401662342	 0.14807
H	-1.5046883903	 1.2322194143	-0.6872525142	 0.12423
H	-1.723715235	 1.0223487685	 1.0559079915	 0.110722
H	-0.8938119875	-1.0802317873	 0.0559992884	 0.072962
H	 2.5212572381	-1.1610890138	-0.3510046819	 0.097303
H	 2.4562626724	 0.6066655619	-0.0737786996	 0.111278
H	 0.9573474218	-1.5620309124	 1.4867898483	 0.082036
H	 0.1985583768	-0.8327539985	 3.8828257147	 0.122705
H	 0.3801676392	 0.8843106572	 4.3026999444	 0.129663
H	-0.8480850088	 0.3797326466	 3.1318027912	 0.132079
H	 2.7821738433	 1.0524061144	 3.7422083218	 0.113703
H	 3.3792006467	 0.5644622521	 2.0752486471	 0.114438
68.9908	97.6306	167.737	187.4075	224.2752	241.2457	307.434	338.9233	378.5102	420.3759	469.6152	536.7155	696.3406	758.4785	805.9615	862.5672	886.6733	919.5578	940.4029	974.9161	1008.1227	1027.4653	1055.0121	1092.5404	1099.3854	1114.0365	1134.5425	1153.3346	1170.2836	1186.3885	1240.6968	1257.7951	1291.1651	1358.225	1381.8822	1389.0931	1395.2489	1409.9416	1415.9223	1480.8037	1490.1582	1492.2398	1498.3871	1517.1347	1530.8008	3005.0503	3017.633	3038.6448	3040.7743	3053.6345	3069.4993	3080.8102	3102.2085	3108.0666	3126.2584	3138.3098	3164.9999
CC1OCC1C1(C)CO1	C[C@H]1OC[C@H]1[C@@]1(C)CO1	
InChI=1S/C7H12O2/c1-5-6(3-8-5)7(2)4-9-7/h5-6H,3-4H2,1-2H3	InChI=1S/C7H12O2/c1-5-6(3-8-5)7(2)4-9-7/h5-6H,3-4H2,1-2H3/t5-,6-,7-/m1/s1
