17
gdb 67530	2.44026	1.80159	1.50265	3.76	71.39	-0.2333	-0.0213	0.2119	952.5511	0.134367	-421.78416	-421.776383	-421.775439	-421.816292	30.094	
C	-0.0358184988	 1.5687620157	-0.0196274643	-0.496552
C	 0.0099249938	 0.0589847161	 0.0363616992	 0.179367
C	-1.3175421118	-0.6690697503	 0.4025969628	-0.020856
O	-1.1163873006	-2.0832982226	 0.3012042943	-0.238781
C	-0.6666133116	-1.4173498718	 1.4883621896	 0.022701
C	 0.7110829681	-0.7797878438	 1.1772989532	-0.13276
C	 1.5905616498	-1.5226219578	 0.1314838535	-0.363572
C	 0.8892392346	-0.712417119	-0.9817576948	 0.387295
O	 1.0296494989	-0.6328578952	-2.1658472944	-0.302347
H	 0.9706916771	 1.9984500845	-0.0325788102	 0.127767
H	-0.5509611544	 1.8997356681	-0.9279112313	 0.140637
H	-0.5692527794	 1.9825372151	 0.8433448041	 0.121891
H	-2.3297571833	-0.3005423452	 0.2751525939	 0.109401
H	-1.0506772731	-1.7847649778	 2.433144535	 0.110244
H	 1.2057138898	-0.2752161318	 2.0053986131	 0.084838
H	 2.6568149532	-1.2853720637	 0.1988901434	 0.128649
H	 1.4656127879	-2.6045724805	 0.0573290231	 0.142078
89.9521	188.5186	201.292	248.9841	264.9996	335.0329	454.7173	498.5218	566.9714	626.3833	685.9593	772.3352	798.9586	815.8842	840.3319	872.1465	900.5487	968.4966	978.4059	1004.5646	1027.4086	1051.1449	1083.3476	1112.6183	1159.9347	1180.2801	1205.2537	1218.5518	1245.4464	1284.1343	1303.4686	1377.5862	1409.004	1424.3147	1489.383	1490.7324	1891.3189	3028.8348	3063.4955	3096.0618	3103.1761	3127.0337	3135.3132	3171.5199	3187.9343
CC12C3OC3C1CC2=O	C[C@]12[C@H]3O[C@H]3[C@H]1CC2=O	
InChI=1S/C7H8O2/c1-7-3(2-4(7)8)5-6(7)9-5/h3,5-6H,2H2,1H3	InChI=1S/C7H8O2/c1-7-3(2-4(7)8)5-6(7)9-5/h3,5-6H,2H2,1H3/t3-,5+,6+,7+/m1/s1
