15
gdb 10159	2.54994	1.29502	0.90234	2.4939	62.9	-0.2797	-0.0535	0.2261	1208.0351	0.116433	-399.810058	-399.800915	-399.79997	-399.84512	30.252	
O	-0.1349746475	 1.441886139	 0.1331074488	-0.416548
C	 0.0260204475	 0.0425937914	-0.0066230941	-0.087727
C	-1.3708528391	-0.5677049407	 0.0606077752	-0.188066
C	-1.3615898458	-2.1158438549	-0.0294199239	-0.232097
C	-2.8084052358	-2.61910964	 0.10445372	 0.161409
O	-3.2793575574	-2.9618227078	 1.1518064877	-0.228537
C	-0.7770626093	-2.5899245491	-1.2837143665	 0.267125
N	-0.3446161157	-2.9707793166	-2.2857469964	-0.315479
H	 0.7237014032	 1.8594440322	 0.0187248179	 0.294021
H	 0.501440877	-0.2189508676	-0.9635397274	 0.11695
H	 0.6511753409	-0.3758965533	 0.7993072159	 0.094863
H	-1.8403127196	-0.2889541754	 1.008685339	 0.140089
H	-1.9814705084	-0.1496736229	-0.7465975009	 0.131888
H	-0.7967744388	-2.5291179396	 0.8129658493	 0.149596
H	-3.3960232112	-2.5993396548	-0.8373669947	 0.112513
49.2343	90.9567	92.7942	135.537	197.3562	227.9441	238.2518	326.9063	395.1604	479.9971	537.1058	602.6998	794.6432	902.7732	930.64	1003.6578	1051.3211	1077.1988	1100.2826	1110.4298	1213.1645	1229.0844	1268.2814	1310.0035	1335.9237	1341.5834	1416.474	1466.0494	1491.8742	1528.9958	1844.6165	2355.6921	2916.9354	2967.4586	3012.4165	3054.1327	3067.9931	3108.8172	3833.8836
OCCC(C=O)C#N	OCC[C@@H](C=O)C#N	
InChI=1S/C5H7NO2/c6-3-5(4-8)1-2-7/h4-5,7H,1-2H2	InChI=1S/C5H7NO2/c6-3-5(4-8)1-2-7/h4-5,7H,1-2H2/t5-/m1/s1
