15
gdb 69887	2.81843	1.64766	1.20387	1.0109	72.48	-0.2305	0.0103	0.2408	1007.8823	0.109671	-420.501594	-420.493732	-420.492788	-420.533558	31.098	
O	-0.1778417253	 1.421489972	-0.0321236896	-0.441597
C	-0.0482750585	 0.0537629186	-0.0067982804	 0.304427
C	-0.1981199542	-0.8568848628	-1.1915896921	-0.352842
C	-1.1627042316	-0.963383438	-0.0201830578	-0.155756
C	-0.4962717429	-1.6788326191	 1.1908912501	-0.065939
O	 0.8372318307	-2.0732842709	 0.856492926	-0.283477
C	 0.6002788135	-0.6990894915	 1.2302900458	 0.195368
C	 1.334515563	-0.09556806	 2.2821542859	 0.183735
C	 1.958918226	 0.4630029035	 3.1453291731	-0.360461
H	 0.636338881	 1.7978561924	-0.3870649718	 0.29373
H	-0.6303634339	-0.3605480989	-2.054958443	 0.119923
H	 0.5095835514	-1.6482326195	-1.4037143205	 0.138607
H	-2.2271662059	-0.8014337822	-0.114547897	 0.108538
H	-0.9908077958	-2.2091944771	 1.9955239461	 0.123128
H	 2.5038588322	 0.9447224836	 3.9191782251	 0.192615
123.988	133.1089	259.3038	296.2556	335.034	396.0439	446.7395	481.0265	517.9524	566.5446	587.6452	602.6593	660.8544	672.4822	789.9048	799.8621	862.8474	905.13	926.0798	940.3612	995.2184	1011.237	1025.6335	1088.7456	1118.683	1201.174	1227.7176	1257.7443	1300.1658	1398.2196	1417.5539	1484.701	2237.6085	3138.8903	3195.8698	3220.3665	3235.3867	3500.8006	3780.312
OC12CC1C1OC21C#C	O[C@]12C[C@H]1[C@H]1O[C@@]21C#C	
InChI=1S/C7H6O2/c1-2-7-5(9-7)4-3-6(4,7)8/h1,4-5,8H,3H2	InChI=1S/C7H6O2/c1-2-7-5(9-7)4-3-6(4,7)8/h1,4-5,8H,3H2/t4-,5+,6+,7+/m0/s1
