17
gdb 129911	3.09474	1.30877	0.98374	5.6659	71.26	-0.2051	0.0228	0.228	1171.0594	0.137084	-451.314003	-451.305214	-451.30427	-451.348006	32.092	
N	 0.5177840868	 1.421751983	-0.1542144591	-0.61898
C	 0.2031419815	 0.0795349132	-0.0685084748	 0.31876
C	-1.0118140923	-0.5722691228	 0.0410009254	-0.12309
N	-0.7937263122	-1.9135500598	 0.0286647855	-0.187909
N	 0.474007578	-2.1489667558	-0.090644947	-0.171559
N	 1.1100851188	-0.9333043675	-0.1414416208	-0.00485
C	 2.5597556367	-0.9118299837	-0.1513223407	-0.156122
C	 3.1885193334	-0.3970544866	-1.440378807	-0.085675
O	 3.1027321843	 1.0266729765	-1.448002176	-0.409367
H	 1.4909758202	 1.6288647222	-0.3364890252	 0.263989
H	 0.0820240601	 2.0121633568	 0.5369911347	 0.255477
H	-2.0004345719	-0.1497738847	 0.1162577505	 0.108087
H	 2.9272563554	-0.3060214369	 0.685883017	 0.129243
H	 2.8612510554	-1.9476212163	 0.0166925525	 0.150383
H	 4.2411255147	-0.7142075412	-1.4683708962	 0.107115
H	 2.6724309915	-0.8375436805	-2.3024378431	 0.123821
H	 3.1814466597	 1.3415896039	-2.3528075858	 0.300678
39.0208	133.8551	166.7625	220.7763	250.6325	276.6956	301.603	347.1548	447.6458	486.9113	573.059	667.0162	688.7568	720.7071	738.3625	800.7542	882.584	972.6236	989.0008	1030.6279	1075.5872	1109.9559	1119.9845	1169.7421	1250.9625	1263.5651	1288.0539	1315.7247	1347.4464	1373.4867	1396.7079	1446.2576	1460.762	1500.5849	1512.6862	1617.5029	1648.0782	2999.2781	3038.5158	3059.3558	3126.9842	3268.2732	3540.8823	3664.0923	3844.0117
NC1=CN=NN1CCO	Nc1cnnn1CCO	
InChI=1S/C4H8N4O/c5-4-3-6-7-8(4)1-2-9/h3,9H,1-2,5H2	InChI=1S/C4H8N4O/c5-4-3-6-7-8(4)1-2-9/h3,9H,1-2,5H2
