14
gdb 129972	3.3289	1.46778	1.01999	5.2228	69.24	-0.2147	-0.0211	0.1936	1077.2678	0.103491	-466.234756	-466.22681	-466.225866	-466.266878	30.494	
N	 0.0248063305	 1.3395149866	 0.1424090226	-0.568373
C	-0.0048096558	-0.0349222529	 0.0582440295	 0.492995
N	-1.1645416164	-0.6468733673	 0.0483197127	-0.395552
C	-1.161234725	-2.0154284976	 0.0394289687	 0.351348
O	-2.1655738662	-2.7104786441	 0.013965735	-0.388675
C	 0.187595107	-2.6858442512	 0.0350970776	 0.311407
N	 0.1422230865	-4.0379655089	 0.0658233127	-0.546191
N	 1.3159141349	-2.0439686601	 0.0167414898	-0.310455
N	 1.1795353388	-0.6751557259	 0.0299849005	-0.28697
H	 0.7833637246	 1.8192457261	-0.3186887167	 0.256371
H	-0.8830592188	 1.7467084324	-0.0299569639	 0.275345
H	-0.7736620932	-4.4284761263	-0.0973309802	 0.27724
H	 0.9667390181	-4.5724318284	-0.1466199469	 0.260383
H	 2.052857305	-0.1825930723	 0.1178755787	 0.271127
97.2463	195.3716	290.1089	321.987	334.5339	342.6156	363.694	454.7362	497.418	512.451	550.3852	557.6287	577.8766	609.2998	725.9245	743.9413	828.1247	842.462	994.6626	1079.7714	1125.2758	1235.6923	1278.1959	1392.4186	1421.3389	1564.7427	1578.1813	1602.9755	1648.5901	1685.066	1762.2945	3572.0146	3583.8609	3648.0642	3682.53	3725.7277
NC1=NC(=O)C(N)=NN1	Nc1nc(=O)c(N)n[nH]1	
InChI=1S/C3H5N5O/c4-1-2(9)6-3(5)8-7-1/h(H2,4,7)(H3,5,6,8,9)	InChI=1S/C3H5N5O/c4-1-2(9)6-3(5)8-7-1/h(H2,4,7)(H3,5,6,8,9)
