18
gdb 46367	3.37575	1.11561	0.88558	4.2057	72.34	-0.2453	0.0291	0.2744	1276.6668	0.148282	-439.078395	-439.06981	-439.068866	-439.113551	30.173	
O	 0.307366237	 0.0639778682	-0.1679284039	-0.364043
C	 0.1039834521	 1.2454155511	-0.0806118792	 0.426066
N	-1.0379480612	 2.007277935	-0.080609362	-0.321744
C	-0.3682977506	 3.2952435904	 0.1209915277	-0.190516
C	 0.9832989758	 2.5131946128	 0.106920242	-0.163305
C	 1.8391631086	 2.5230374346	 1.3586438262	-0.03518
C	 3.0925701056	 1.6171224274	 1.3082727239	-0.082082
O	 3.9744373139	 2.7604690539	 1.3441213738	-0.27268
C	 2.8690654124	 3.6700146303	 1.4955281824	-0.090536
H	-2.0126439708	 1.7537239165	-0.1460138322	 0.25283
H	-0.5090170691	 4.008619992	-0.6967515086	 0.1166
H	-0.6074446168	 3.7788085401	 1.0743768657	 0.113477
H	 1.5908816635	 2.7227831464	-0.779034965	 0.10776
H	 1.2151630403	 2.3709326598	 2.2436183333	 0.082425
H	 3.2306874831	 0.9638569108	 2.1780752703	 0.105079
H	 3.2143698718	 1.0234692918	 0.395668492	 0.119917
H	 2.8478840754	 4.4304851545	 0.7036214566	 0.097351
H	 2.8805687388	 4.1751524744	 2.4702931971	 0.098581
33.3223	58.6059	95.7995	134.6906	228.205	302.8716	362.9946	450.0636	529.8931	673.5079	755.3589	814.2027	844.18	879.7917	909.4376	946.1612	986.0196	989.5229	1036.3788	1044.8256	1059.4935	1095.9997	1150.7722	1158.5167	1162.5444	1173.5024	1191.3937	1224.5384	1251.7034	1281.2394	1298.3622	1308.6538	1374.1212	1394.9136	1407.2505	1511.5967	1527.6986	1537.3724	1890.2379	3000.374	3025.1607	3037.1169	3040.3328	3062.009	3068.4417	3079.5542	3088.6846	3610.9147
O=C1NCC1C1COC1	O=C1NC[C@H]1C1COC1	
InChI=1S/C6H9NO2/c8-6-5(1-7-6)4-2-9-3-4/h4-5H,1-3H2,(H,7,8)	InChI=1S/C6H9NO2/c8-6-5(1-7-6)4-2-9-3-4/h4-5H,1-3H2,(H,7,8)/t5-/m0/s1
