16
gdb 16168	4.55655	1.63958	1.39744	2.0023	64.98	-0.2477	0.0008	0.2485	900.1295	0.130773	-383.723073	-383.715947	-383.715002	-383.754535	27.261	
O	 0.0806276002	 1.3612642675	 0.3205644709	-0.418053
C	 0.0941632251	 0.00946737	-0.1112179202	-0.163287
C	-1.3000104459	-0.5363830247	-0.2363161098	 0.367744
O	-1.9408572626	-0.8314447544	 1.0427152103	-0.309296
C	-1.7368377901	-1.900498452	 0.1143379085	-0.031505
C	-2.9605682803	-2.2391630165	-0.7305514429	-0.295799
C	-3.2023908813	-0.9589964444	-1.5073158426	-0.075766
C	-2.278304266	-0.0307763447	-1.2501109499	-0.129564
H	-0.3911365462	 1.3777617042	 1.1611880602	 0.29399
H	 0.5924585993	 0.0065261193	-1.0865027076	 0.11394
H	 0.6737698856	-0.6294409873	 0.5711146164	 0.095384
H	-1.0557684604	-2.6803799553	 0.445995731	 0.094535
H	-2.7610165272	-3.0911965907	-1.3930936085	 0.114313
H	-3.8183464442	-2.5153645628	-0.1055808816	 0.127966
H	-4.0572205744	-0.8320855865	-2.162005105	 0.103085
H	-2.2243063916	 0.9649490684	-1.6707602591	 0.112312
73.8285	157.4795	274.387	296.7339	368.8531	430.5741	473.4283	505.8621	696.7195	710.262	742.0846	795.3154	861.1416	907.7245	932.4323	958.1749	973.4655	994.5584	996.9448	1047.4532	1084.6766	1129.6257	1184.8912	1188.3806	1263.2816	1283.4781	1310.8341	1351.7304	1390.8622	1421.1942	1447.7876	1459.9015	1490.6197	1663.9517	2998.6254	3028.728	3064.6428	3076.7111	3144.2772	3193.5575	3227.0811	3800.5472
OCC12OC1CC=C2	OC[C@]12O[C@H]1CC=C2	
InChI=1S/C6H8O2/c7-4-6-3-1-2-5(6)8-6/h1,3,5,7H,2,4H2	InChI=1S/C6H8O2/c7-4-6-3-1-2-5(6)8-6/h1,3,5,7H,2,4H2/t5-,6-/m0/s1
