18
gdb 87944	3.4471	1.13319	1.05024	4.2283	73.91	-0.2516	0.0327	0.2844	1192.2342	0.148182	-439.085452	-439.077228	-439.076284	-439.11842	31.526	
O	-0.1897918997	 1.3269850077	-0.4036219614	-0.416404
C	-0.0907756968	-0.0464199932	-0.1766264569	 0.062797
C	-0.3244196284	-0.5862501653	 1.2161343507	-0.399736
C	-1.3667700265	-0.7736193261	 0.1433027942	 0.29914
C	-2.6883954888	-0.0242761171	 0.1607935179	-0.149433
O	-3.4523627712	-0.5866419226	-0.9209066267	-0.238599
C	-2.9319507347	-1.7854077439	-1.3203737179	 0.42098
N	-3.4105803269	-2.5066398452	-2.2386944525	-0.543211
C	-1.7036722626	-2.1094358954	-0.4926980237	-0.395856
H	 0.5743484166	 1.7557052084	-0.0046070353	 0.293314
H	 0.6284338471	-0.5673536748	-0.8095048959	 0.09449
H	 0.2418884186	-1.4503415649	 1.5488461586	 0.118903
H	-0.5356192154	 0.1464767308	 1.9896610244	 0.117845
H	-3.2387412991	-0.1802349843	 1.0976255802	 0.107213
H	-2.5705736185	 1.0457779308	-0.0169466295	 0.140349
H	-4.2482301724	-2.073434332	-2.6316150497	 0.22052
H	-0.9125937948	-2.5304508668	-1.1153325165	 0.136625
H	-1.9664559667	-2.8614282761	 0.2617298	 0.131063
69.1205	137.0674	195.0033	239.8742	276.4696	331.0389	424.5249	459.4603	491.8867	516.632	548.466	687.7718	807.6738	818.3209	852.5401	886.309	892.4096	914.8873	977.4435	1006.4077	1025.7215	1041.9926	1084.7612	1093.6833	1109.0903	1170.1269	1182.143	1225.4584	1256.0458	1268.6383	1292.9844	1305.4195	1351.879	1404.7587	1426.9581	1473.2676	1490.9971	1523.0332	1778.8489	3021.1768	3038.0489	3096.3652	3118.1504	3120.1194	3121.9596	3209.5451	3470.2607	3809.6451
OC1CC11COC(=N)C1	O[C@H]1C[C@]21CO[C]([NH])C2	
InChI=1S/C6H9NO2/c7-5-2-6(3-9-5)1-4(6)8/h4,7-8H,1-3H2	InChI=1S/C6H9NO2/c7-5-2-6(3-9-5)1-4(6)8/h4,7-8H,1-3H2/t4-,6+/m0/s1
