18
gdb 79166	2.59574	1.86307	1.43299	2.6143	73.94	-0.2384	-0.023	0.2154	960.6765	0.149331	-401.93511	-401.927778	-401.926834	-401.966777	28.941	
C	-0.355850579	 1.5397861951	 0.0818599608	-0.403618
C	 0.0239042294	 0.0600305863	-0.0346297002	-0.124871
C	 0.7891003059	-0.377451016	-1.2662351136	-0.0402
C	 2.2380066682	-0.0954133977	-1.4546455792	-0.037597
C	 2.9828192519	 0.1984051073	-0.1608440358	-0.26
C	 2.1792672648	-0.9950022937	 0.4437198192	-0.116726
N	 1.7749846529	-1.4511278081	-0.9536099748	-0.15524
C	 0.9412152617	-0.4184762623	 1.1048410326	 0.421542
O	 0.7301441908	-0.3044499052	 2.2839401978	-0.327144
H	 0.5177883977	 2.1861134615	-0.0454852648	 0.123138
H	-1.0928039557	 1.8173323764	-0.6775004992	 0.120363
H	-0.7855954929	 1.7346191013	 1.0683146794	 0.141935
H	-0.8916949132	-0.5445378342	 0.0310460036	 0.114362
H	 0.2298569897	-0.5706066441	-2.1767611926	 0.099915
H	 2.6543721685	 0.0222355578	-2.4506756898	 0.097852
H	 4.0394079519	-0.0614539577	-0.2481606025	 0.128159
H	 2.8947795107	 1.1858213213	 0.3021051592	 0.116019
H	 2.7178267068	-1.7330909282	 1.0330980399	 0.102113
103.5645	203.7234	212.5832	231.3299	330.4648	455.0504	485.5218	575.1769	635.9437	712.8764	745.0606	762.5939	787.4408	835.8953	874.8968	919.0048	963.533	969.6687	1012.4531	1031.9956	1059.5641	1072.4447	1102.9668	1116.0396	1139.5938	1184.7608	1187.9943	1223.3293	1261.5857	1281.7745	1287.8729	1322.9187	1363.4389	1401.6811	1420.8627	1493.3996	1498.2853	1505.0903	1848.6601	3014.6301	3041.3568	3056.916	3111.0597	3116.9345	3121.6963	3150.1421	3151.7088	3163.3111
CC1C2C3CC(N23)C1=O	C[C@H]1[C@H]2[C@H]3C[C@H](N23)C1=O	
InChI=1S/C7H9NO/c1-3-6-4-2-5(7(3)9)8(4)6/h3-6H,2H2,1H3	InChI=1S/C7H9NO/c1-3-6-4-2-5(7(3)9)8(4)6/h3-6H,2H2,1H3/t3-,4+,5-,6-,8?/m0/s1
