15
gdb 129994	5.13778	1.26563	1.02193	12.5218	79.41	-0.1751	-0.0454	0.1297	1088.9226	0.114951	-412.966331	-412.958835	-412.95789	-412.998271	28.463	
N	-0.022902674	 1.3125281162	 0.0405837409	-0.57338
C	 0.0066798223	-0.0290540842	 0.0104010049	 0.474583
N	-1.0503050598	-0.8119299446	 0.008531408	-0.363575
H	-2.0105193913	-0.4958927285	 0.0188577622	 0.281503
C	-0.6518099557	-2.1813500931	-0.0045391392	 0.357708
C	 0.7329886719	-2.2581728394	-0.012106799	 0.189019
C	 1.2882980813	-0.8638330187	-0.0031832138	-0.499887
C	 0.9147992228	-3.6447801875	-0.0283250142	-0.192298
N	-0.290526451	-4.2662860333	-0.0288391179	-0.250872
N	-1.2949203269	-3.3350222135	-0.0142378935	-0.365207
H	 0.8374040746	 1.8272130886	-0.0295595794	 0.292068
H	-0.8817606662	 1.8339992701	-0.0144397937	 0.281636
H	 1.8815899125	-0.5785936137	-0.884409835	 0.146189
H	 1.890695323	-0.5922513719	 0.875877083	 0.14867
H	 1.8244805663	-4.2292423866	-0.0391462032	 0.073842
107.4526	128.7888	206.4923	301.9613	308.215	414.826	499.3128	507.9239	547.6971	665.1243	692.0366	693.8351	733.6174	804.0211	824.2503	853.308	934.3268	970.0073	1041.9593	1062.2642	1125.0812	1144.3812	1162.448	1218.4695	1280.6321	1322.9388	1409.9165	1442.5823	1460.8662	1471.6398	1582.4505	1638.8635	1700.0428	2999.4715	3022.4851	3221.9203	3604.4874	3615.8572	3735.7418
NC1=[NH+]C2=C(C1)C=N[N-]2	N[C]1Nc2c(C1)cnn2	
InChI=1S/C5H5N4/c6-4-1-3-2-7-9-5(3)8-4/h2H,1H2,(H2-,6,7,8,9)/q-1/p+1	InChI=1S/C5H7N4/c6-4-1-3-2-7-9-5(3)8-4/h2H,1H2,(H4,6,7,8,9)
