16
gdb 5780	6.01902	1.39078	1.24084	3.2198	70.88	-0.2071	0.0326	0.2397	979.8597	0.133192	-342.809847	-342.802954	-342.80201	-342.842138	26.067	
C	-0.1982958515	 1.3335880526	-0.311334423	-0.26359
C	 1.2122472021	 1.1061682507	 0.154840712	-0.263516
C	 0.2412876717	-0.0562411066	 0.1029614374	-0.087136
C	-0.2684126957	-0.6887161058	 1.3368500877	 0.300896
C	-0.5816767272	-0.1277839554	 2.5531553633	-0.206627
N	-1.0101693943	-1.1745432491	 3.3429032834	-0.229501
C	-0.9404436125	-2.3037646953	 2.5880839653	 0.00829
N	-0.4992657958	-2.0497068948	 1.3776005942	-0.313576
H	-0.881075565	 1.8540876204	 0.3520532134	 0.109229
H	-0.3716745782	 1.5205873856	-1.3655047042	 0.112773
H	 2.011241006	 1.1364100858	-0.5779622167	 0.112775
H	 1.4938838372	 1.4710666807	 1.1370377533	 0.109242
H	 0.3888776809	-0.7756501674	-0.6943566023	 0.094948
H	-0.543935939	 0.882122942	 2.925906425	 0.123846
H	-1.3163394772	-1.1094619563	 4.298798036	 0.264823
H	-1.2218997514	-3.2734204471	 2.9707309552	 0.127124
21.8348	177.5233	181.3265	405.7808	411.5946	512.0023	622.6875	660.3891	695.9689	742.4873	788.3911	810.3458	820.7747	906.3469	915.3173	949.2628	977.8298	1056.8278	1070.2076	1072.4872	1101.6201	1137.5448	1143.7832	1203.0557	1210.7116	1232.1255	1255.3646	1355.1299	1404.8482	1465.9177	1470.5379	1499.888	1529.3188	1594.5399	3127.7505	3132.2802	3177.4816	3206.968	3224.1698	3251.7422	3272.0188	3668.4778
C1CC1C1=CNC=N1	C1CC1c1c[nH]cn1	
InChI=1S/C6H8N2/c1-2-5(1)6-3-7-4-8-6/h3-5H,1-2H2,(H,7,8)	InChI=1S/C6H8N2/c1-2-5(1)6-3-7-4-8-6/h3-5H,1-2H2,(H,7,8)
