18
gdb 8355	5.98819	1.04499	1.04496	0.2934	83.68	-0.24	0.0533	0.2933	1220.8917	0.154199	-310.600753	-310.59289	-310.591945	-310.634834	28.993	
C	-0.0193966672	 1.4336690273	 0.0093149657	-0.51668
C	 0.0024806738	-0.021490678	 0.0022282464	 0.386165
C	 0.0203851746	-1.2268858924	-0.0039629972	-0.426825
C	 0.0407090085	-2.6618107977	-0.0119559671	 0.292469
C	 0.6824705202	-3.6163335027	 1.0533413688	-0.243499
C	 0.0674431365	-4.5539757645	-0.0226916853	-0.08014
C	-1.1871183485	-3.636744169	-0.0084483294	-0.243464
C	 0.6673501876	-3.6043494399	-1.0966647893	-0.243424
H	 0.9952619914	 1.8474563751	-0.0004467728	 0.147653
H	-0.5458998269	 1.82834021	-0.8669756382	 0.147664
H	-0.5255655761	 1.8202526818	 0.9010548126	 0.147653
H	 1.7730274554	-3.5915627278	 1.1247794598	 0.093128
H	 0.2135729257	-3.6187319035	 2.0409317744	 0.093152
H	 0.0828037193	-5.6431246506	-0.0289665315	 0.073606
H	-1.7943174284	-3.6407720955	 0.9006147503	 0.093152
H	-1.8077700107	-3.630610363	-0.9083819953	 0.093128
H	 0.1841201315	-3.5957734323	-2.0771802352	 0.093117
H	 1.7567716234	-3.5786645171	-1.1838095168	 0.093145
12.9445	104.8025	106.1201	304.4252	304.6226	449.9045	497.1865	498.5999	556.9973	559.8956	792.2123	793.2727	873.4557	917.7099	943.2531	943.4702	960.343	990.6957	1042.0669	1054.5256	1054.5594	1095.747	1097.557	1128.4291	1128.7759	1160.1795	1161.5293	1234.2309	1234.3438	1244.9517	1334.0404	1414.1883	1477.7978	1477.8377	1495.2377	1497.7754	1551.5801	2363.3507	3024.4524	3048.4609	3049.7754	3056.3499	3084.7807	3084.8128	3114.8351	3120.25	3120.7506	3122.3328
CC#CC12CC(C1)C2	CC#C[C@@]12C[C@@H](C1)C2	
InChI=1S/C8H10/c1-2-3-8-4-7(5-8)6-8/h7H,4-6H2,1H3	InChI=1S/C8H10/c1-2-3-8-4-7(5-8)6-8/h7H,4-6H2,1H3/t7-,8+
