13
gdb 129444	4.42098	1.12658	0.89844	5.2367	62.3	-0.252	-0.0584	0.1935	1189.7681	0.090332	-486.099471	-486.091438	-486.090493	-486.132399	29.183	
N	 0.3595982898	 0.3062723289	-1.1249010787	-0.530829
C	-0.1446208185	 0.227660654	 0.1320800925	 0.322245
O	 0.2504376548	 0.8478070895	 1.0949317647	-0.337263
C	-1.2869870462	-0.7449674466	 0.2177769385	 0.373032
N	-1.7780879505	-1.4672395289	-0.7478570936	-0.375876
C	-2.7857658759	-2.1479541004	-0.1028537119	 0.416334
N	-3.6239910393	-2.9977244537	-0.7699241753	-0.588851
N	-2.9003578168	-1.8686473979	 1.1796403695	-0.193168
O	-1.8902708822	-0.9140182075	 1.3856771268	-0.183382
H	 1.12410816	 0.9360714872	-1.3008165726	 0.272979
H	-0.0391506785	-0.23674874	-1.8725923192	 0.281916
H	-3.2254822061	-3.4195592362	-1.5941611743	 0.270009
H	-4.1449026506	-3.6338314686	-0.1854691063	 0.272853
62.6907	155.5053	168.3559	260.0606	315.4594	356.4537	379.8758	402.4156	535.0515	551.2001	563.8724	650.9163	657.7697	756.0893	772.6195	819.6697	942.9065	1036.4219	1046.0891	1098.1435	1126.235	1274.0205	1384.0873	1444.5964	1564.1875	1605.3969	1618.3304	1658.4767	1815.8203	3588.4078	3600.359	3698.3938	3741.3335
NC(=O)C1=NC(N)=NO1	NC(=O)c1nc(N)no1	
InChI=1S/C3H4N4O2/c4-1(8)2-6-3(5)7-9-2/h(H2,4,8)(H2,5,7)	InChI=1S/C3H4N4O2/c4-1(8)2-6-3(5)7-9-2/h(H2,4,8)(H2,5,7)
