18
gdb 63101	2.63107	1.41928	1.23033	3.703	72.15	-0.2137	-0.0177	0.196	1080.5771	0.14678	-439.08028	-439.071607	-439.070662	-439.113376	33.032	
C	 0.0585847175	 1.6110036808	-0.0870611295	-0.458179
C	 0.0540028737	 0.1045541419	 0.0087752976	 0.379789
O	-1.1635625317	-0.4900726161	-0.3700677398	-0.458422
C	 1.2627735032	-0.7473015359	-0.2064861619	-0.094701
N	 2.5662124765	-0.0878330362	-0.2049117045	-0.317203
C	 2.8683015536	 0.3608707916	 1.1626158492	-0.292909
C	 1.6646749478	-0.013836914	 2.0506708501	 0.398131
O	 1.616391006	 0.152478815	 3.2439000828	-0.324578
C	 0.643197709	-0.6769124183	 1.1886450534	-0.224583
H	 1.0237254513	 2.042647015	 0.1810425039	 0.138344
H	-0.1544284859	 1.9166646806	-1.1189336672	 0.11225
H	-0.7134691675	 2.0362561384	 0.5604745893	 0.136235
H	-1.3011948713	-0.2986961611	-1.3052551501	 0.283489
H	 1.1645869953	-1.6288528595	-0.8297047663	 0.100419
H	 3.267498653	-0.7426644845	-0.5230551578	 0.231944
H	 3.7614026249	-0.1218084995	 1.5755729942	 0.132418
H	 3.0393285389	 1.4431626399	 1.2194927332	 0.135997
H	 0.0065648959	-1.435739498	 1.6246162334	 0.121558
99.4916	141.5202	156.057	202.7951	250.4501	289.5255	386.7863	401.5554	471.6548	490.3236	553.3172	589.5377	666.9836	718.9989	760.7042	832.0741	849.2123	915.4837	967.6233	973.165	1003.9346	1021.5667	1042.5361	1079.2082	1123.9206	1172.9555	1184.0173	1205.8383	1257.5079	1285.5158	1304.133	1331.9605	1404.5813	1419.6667	1468.0607	1476.8917	1483.9136	1501.6273	1831.8382	3028.1209	3032.8506	3063.836	3099.4925	3146.1851	3177.4862	3205.6021	3571.8171	3786.8319
CC1(O)C2NCC(=O)C12	C[C@@]1(O)[C@H]2NCC(=O)[C@@H]12	
InChI=1S/C6H9NO2/c1-6(9)4-3(8)2-7-5(4)6/h4-5,7,9H,2H2,1H3	InChI=1S/C6H9NO2/c1-6(9)4-3(8)2-7-5(4)6/h4-5,7,9H,2H2,1H3/t4-,5+,6+/m1/s1
