18
gdb 35338	3.6339	1.41596	1.26279	1.1472	84.73	-0.2161	0.0269	0.2431	1037.5805	0.147145	-364.638107	-364.630729	-364.629785	-364.669499	30.571	
C	-0.2052107195	-1.3218156023	-0.0435401065	-0.487054
C	-0.115887448	-0.1228552011	 0.0212955905	 0.377028
C	-0.051803014	 1.3258793664	 0.0247927465	-0.190177
C	-0.3064932039	 2.087930796	 1.402241622	-0.350399
C	 1.2157174252	 2.3057124696	 1.3917863133	 0.295774
C	 2.5013403164	 3.1696597456	 1.2477481743	-0.278704
C	 2.6817357779	 1.8139387671	 0.4316564294	-0.016819
C	 2.1402966625	 1.0651716884	 1.6558447197	-0.260755
N	 1.2717059774	 2.1134192902	-0.0950305139	-0.153484
H	-0.2696685753	-2.3809041946	-0.0898440019	 0.198978
H	-0.6921328817	 1.6906433647	-0.7826740091	 0.119427
H	-0.8973894164	 2.9914866226	 1.2414971265	 0.121337
H	-0.7180395353	 1.5019406022	 2.2248896981	 0.116923
H	 2.3909149155	 4.0685775063	 0.6415703942	 0.112037
H	 3.1563688862	 3.3011298905	 2.1121338307	 0.09718
H	 3.5158355892	 1.5559321962	-0.2249693848	 0.086734
H	 2.7509136356	 1.0855596011	 2.5631593165	 0.087397
H	 1.712718828	 0.0805700609	 1.4839398547	 0.124578
130.2133	154.2433	292.7763	322.3598	390.8152	458.8123	497.6548	550.8598	613.2991	617.8638	644.468	691.6006	749.381	775.5959	795.6288	842.959	876.7499	915.1889	929.9899	985.946	996.9157	1004.622	1028.6854	1078.1471	1091.5614	1124.0487	1132.4889	1173.2961	1189.4333	1196.1757	1212.5007	1225.9532	1250.2936	1281.83	1336.4422	1470.4365	1474.7177	1528.3053	2217.3087	3058.5542	3066.1053	3069.3075	3080.0443	3087.8556	3146.7188	3159.6209	3171.1289	3500.1026
C#CC1CC23CC(C2)N13	C#C[C@H]1C[C@@]23C[C@@H](C2)N13	
InChI=1S/C8H9N/c1-2-6-3-8-4-7(5-8)9(6)8/h1,6-7H,3-5H2	InChI=1S/C8H9N/c1-2-6-3-8-4-7(5-8)9(6)8/h1,6-7H,3-5H2/t6-,7-,8+/m0/s1
