17
gdb 68949	2.64538	1.62617	1.31259	3.9079	73.43	-0.254	-0.0396	0.2144	1013.8801	0.133975	-421.783149	-421.775069	-421.774125	-421.815665	30.68	
C	 0.2267715335	 1.430694827	 0.1133675577	-0.497034
C	-0.0310085683	-0.0406681961	 0.096891219	 0.344813
O	 1.0234127705	-0.8968728034	-0.3108781658	-0.299462
C	 0.4987905892	-1.1313969145	 1.0024546734	 0.242386
C	 1.3751264697	-0.9448331498	 2.1764104623	 0.066259
O	 2.4229468562	-0.3457052266	 2.1687421991	-0.266444
C	-0.8090277882	-1.8863444846	 0.8971327997	-0.147392
C	-1.9470031088	-1.0013886725	 1.34232752	-0.29337
C	-1.3503297555	-0.7843607796	-0.0236098196	-0.118509
H	 1.2044900232	 1.6314912811	 0.557636915	 0.162366
H	 0.2239811603	 1.8266850375	-0.9083040862	 0.138178
H	-0.547188994	 1.9547076659	 0.6816788081	 0.128444
H	 0.9610246862	-1.3892612598	 3.1091636377	 0.080822
H	-0.9122230923	-2.9556585212	 0.7651501683	 0.108292
H	-2.9262817088	-1.4700783962	 1.3588298977	 0.124602
H	-1.7952462788	-0.2682695872	 2.1297919053	 0.118286
H	-1.9180534741	-0.9131340798	-0.9366166415	 0.107762
97.4429	160.0024	201.0078	209.9548	226.1026	314.4443	403.3479	498.8677	503.8242	591.3217	660.4795	739.2127	766.2573	801.0041	821.9638	860.2066	927.7919	943.4039	998.0466	1026.7964	1052.9237	1064.6647	1071.3853	1100.4206	1125.6534	1160.8699	1201.4884	1243.4919	1312.8886	1320.3557	1392.2547	1426.138	1439.9611	1483.5988	1489.0032	1490.4591	1805.4184	2881.1642	3039.0829	3103.6759	3118.2265	3134.5026	3192.5172	3197.4781	3209.0461
CC12OC1(C=O)C1CC21	C[C@@]12O[C@]1(C=O)[C@H]1C[C@@H]21	
InChI=1S/C7H8O2/c1-6-4-2-5(4)7(6,3-8)9-6/h3-5H,2H2,1H3	InChI=1S/C7H8O2/c1-6-4-2-5(4)7(6,3-8)9-6/h3-5H,2H2,1H3/t4-,5+,6+,7-/m1/s1
