20
gdb 11916	4.27543	1.41627	1.21593	1.4188	74.61	-0.2592	0.0742	0.3334	1047.8274	0.178161	-349.004253	-348.996367	-348.995423	-349.037089	30.783	
O	 0.0576078667	 1.3616498944	-0.2108723787	-0.437494
C	-0.0106051404	-0.0373621274	 0.0039962311	 0.137873
C	 0.6367468984	-0.5284138926	 1.3104570884	-0.241866
C	 0.0042175529	-1.9149702743	 1.5196097627	-0.291518
C	-1.4200005961	-1.7770282372	 0.94813017	 0.387978
C	-2.1757946455	-3.0006978009	 0.4968343563	-0.315567
C	-2.6210984823	-2.2481665289	 1.7272228021	-0.311207
C	-1.4761251444	-0.4652078914	 0.1556253706	-0.289295
H	 0.9825842632	 1.6008569039	-0.3248633818	 0.279793
H	 0.4419558053	-0.5775429072	-0.8445970566	 0.062702
H	 1.7307208531	-0.5524682967	 1.2705699127	 0.08346
H	 0.3445136259	 0.1603366973	 2.1121936432	 0.105449
H	 0.5656761355	-2.671973938	 0.9582577616	 0.098556
H	 0.0102612066	-2.2267803026	 2.568296174	 0.097973
H	-2.7869190824	-2.9269756647	-0.3973825595	 0.107596
H	-1.7046639741	-3.9695024578	 0.6342009963	 0.105182
H	-2.4548438333	-2.7088902787	 2.6962232397	 0.106033
H	-3.5321959042	-1.6609613107	 1.6649164859	 0.108168
H	-1.9905688651	 0.3196487087	 0.7233610958	 0.108612
H	-1.9865284298	-0.562491935	-0.8065343037	 0.097571
26.2325	165.9798	258.0167	283.1419	305.2273	391.3549	407.4358	445.2013	478.9283	556.1066	732.9293	780.1168	830.2932	848.7971	887.4051	920.1202	934.6379	963.8016	978.852	999.6276	1051.6213	1052.6254	1078.5205	1079.0582	1107.9197	1174.8983	1189.4035	1199.3538	1213.6892	1254.8528	1282.6422	1294.3335	1309.0793	1317.7976	1367.0933	1384.1202	1432.3826	1466.6353	1485.9447	1493.5332	1503.0667	1507.5465	2956.2764	3026.2897	3033.0437	3037.6109	3074.7544	3086.0979	3090.1344	3115.836	3120.41	3193.6621	3209.523	3819.7678
OC1CCC2(CC2)C1	O[C@H]1CCC2(CC2)C1	
InChI=1S/C7H12O/c8-6-1-2-7(5-6)3-4-7/h6,8H,1-5H2	InChI=1S/C7H12O/c8-6-1-2-7(5-6)3-4-7/h6,8H,1-5H2/t6-/m0/s1
