20
gdb 89260	2.41955	1.86733	1.33934	0.7457	78.09	-0.2258	0.0627	0.2885	1036.5251	0.170387	-403.076632	-403.068387	-403.067443	-403.108826	32.727	
C	-0.019266544	 1.5616140831	-0.1724917373	-0.427735
C	 0.1086077788	 0.0570651117	-0.0328597998	 0.142623
O	 1.138964922	-0.5738775495	-0.8595077909	-0.36076
C	 1.5204156553	-1.4636928237	 0.2343605609	 0.450949
C	 1.3837520562	-2.9222373376	-0.1055820018	-0.489587
C	 2.7604445782	-0.9971536183	 1.0248703142	-0.079481
C	 2.8778921007	 0.4631566008	 1.0245185078	-0.251682
N	 1.8921081018	-0.1437566204	 1.9538269999	-0.164557
C	 0.6642585143	-0.6504066668	 1.2129646282	-0.100188
H	-0.1419303306	 1.8249003524	-1.2280853583	 0.131131
H	-0.9135537056	 1.89795728	 0.3627572955	 0.122783
H	 0.8356539971	 2.108633357	 0.2258889353	 0.131951
H	-0.8624581034	-0.3968533457	-0.2873207134	 0.076782
H	 2.0898495646	-3.1899734064	-0.8998218517	 0.132162
H	 1.6010466698	-3.5461766943	 0.7673720127	 0.124664
H	 0.374122747	-3.1504953223	-0.4583107136	 0.125817
H	 3.5201753852	-1.6653838161	 1.4202723944	 0.090846
H	 3.7103537846	 0.8963291305	 1.5712179096	 0.120773
H	 2.5699999771	 1.0086829609	 0.1430081598	 0.13669
H	-0.0368500192	-1.0829849754	 1.9260202183	 0.08682
155.0937	193.5144	200.9603	211.4961	232.6028	299.6396	373.238	425.7131	513.143	542.3086	636.3106	677.0635	716.0772	735.809	849.2788	872.2203	884.3728	906.6391	939.8555	958.0038	981.5654	1047.6507	1063.071	1101.0391	1115.2276	1119.7235	1153.647	1156.1855	1166.1764	1201.2659	1237.5435	1286.912	1312.2028	1320.0999	1375.2823	1399.5181	1409.3811	1412.8343	1482.6215	1485.4879	1488.0718	1494.6363	1499.6134	2968.2655	3033.1617	3045.0568	3100.7386	3106.19	3115.4254	3116.1412	3135.0499	3145.2214	3151.6223	3241.457
CC1OC2(C)C3CN3C12	C[C@H]1O[C@@]2(C)[C@H]3CN3[C@@H]12	
InChI=1S/C7H11NO/c1-4-6-7(2,9-4)5-3-8(5)6/h4-6H,3H2,1-2H3	InChI=1S/C7H11NO/c1-4-6-7(2,9-4)5-3-8(5)6/h4-6H,3H2,1-2H3/t4-,5-,6+,7+,8?/m1/s1
