15
gdb 54023	2.23661	1.60078	1.00186	2.4501	64.79	-0.2545	-0.0308	0.2237	1127.84	0.113144	-487.332743	-487.323887	-487.322943	-487.367155	32.322	
N	-0.174483066	 0.9449670297	 0.5228519922	-0.523427
C	-0.0827165349	-0.3498340163	 0.0220418537	 0.369143
N	 1.0009906036	-0.804415401	-0.4386103947	-0.478734
N	-1.3707915825	-1.0204888862	 0.0459026949	-0.227731
C	-2.4804321412	-0.2848344173	-0.3569216535	 0.175107
O	-3.6299773404	-0.6745668835	-0.3869731831	-0.337859
C	-1.398229527	-2.4384117037	 0.3684221954	 0.47897
N	-2.6378416829	-2.948812672	 0.5120822949	-0.560542
O	-0.3698521708	-3.060841503	 0.511175433	-0.375318
H	 0.7382643833	 1.3781962951	 0.570803142	 0.268781
H	-0.6989033289	 1.0391208637	 1.3823617168	 0.257931
H	 0.8832520539	-1.7401124605	-0.8146971824	 0.246284
H	-2.1974060584	 0.7308386199	-0.6633646999	 0.14414
H	-3.4494339698	-2.3960770657	 0.2640397416	 0.293548
H	-2.6877766379	-3.9433466793	 0.6540794891	 0.269707
37.4001	66.9256	165.4171	247.9484	286.9944	325.0187	411.956	420.0685	432.5522	436.6562	492.8065	568.5488	634.0441	678.8434	680.7546	743.3763	770.2556	796.773	857.8177	1044.4188	1059.7587	1123.637	1162.1562	1170.0687	1258.9702	1335.4345	1391.0008	1450.2639	1591.3146	1621.3563	1745.2104	1788.8542	1841.0425	3056.424	3502.7543	3546.8605	3559.5939	3654.5081	3706.4887
NC(=N)N(C=O)C(N)=O	NC(=N)N(C=O)C(=O)N	
InChI=1S/C3H6N4O2/c4-2(5)7(1-8)3(6)9/h1H,(H3,4,5)(H2,6,9)	InChI=1S/C3H6N4O2/c4-2(5)7(1-8)3(6)9/h1H,(H3,4,5)(H2,6,9)
