13
gdb 25406	3.20277	1.49198	1.01783	6.6486	72.08	-0.2535	-0.0925	0.161	1062.9329	0.089254	-456.628123	-456.620881	-456.619937	-456.660314	26.473	
O	-0.1847765465	 0.0263063793	 0.1723506046	-0.245748
C	-0.0151345628	 1.2167335714	 0.1068969694	 0.102362
C	 1.2797717337	 1.9243791932	-0.0001560902	-0.029736
C	 1.2751764128	 3.2905975802	-0.0625431233	-0.111034
C	 2.4720646977	 4.042198527	-0.1655958486	-0.199237
C	 3.6359143402	 3.3491982354	-0.2007129254	 0.106659
O	 3.7013584294	 2.0239836146	-0.1440420213	-0.214312
C	 2.5392855551	 1.1856893324	-0.038613438	 0.392742
O	 2.7380505001	 0.0123793335	 0.00379932	-0.284948
H	-0.8768155469	 1.9260105604	 0.123016108	 0.068612
H	 0.3178833707	 3.8066977528	-0.0313814998	 0.131235
H	 2.4745645	 5.1218870778	-0.2149904568	 0.128143
H	 4.6178317366	 3.8048537021	-0.2778451186	 0.155259
74.6638	145.9066	205.8523	275.03	401.2995	418.6329	472.3832	535.2872	542.5862	653.0613	698.1222	783.3139	802.3006	872.0525	947.0361	961.1216	974.7371	1037.3926	1081.6893	1130.0019	1226.0368	1290.6842	1376.7452	1440.5761	1463.817	1574.2664	1664.5339	1801.2548	1891.3979	2844.1996	3157.8237	3195.6349	3238.4841
O=CC1=CC=COC1=O	O=Cc1cccoc1=O	
InChI=1S/C6H4O3/c7-4-5-2-1-3-9-6(5)8/h1-4H	InChI=1S/C6H4O3/c7-4-5-2-1-3-9-6(5)8/h1-4H
