14
gdb 7686	4.3613	1.61997	1.53683	3.868	58.1	-0.2702	-0.0014	0.2688	843.1418	0.105377	-419.668053	-419.660811	-419.659866	-419.699205	27.422	
C	 0.0328291377	 1.5613535721	-0.0168839267	-0.473532
C	 0.087138001	 0.0542236398	-0.017459733	 0.377316
O	-0.9966381373	-0.5810945802	-0.6234260441	-0.453361
C	 1.3235026051	-0.7452024945	-0.1887849524	 0.04426
O	 2.4600549319	-0.039138404	 0.3593294905	-0.263418
C	 1.9260613283	-0.159668093	 1.649581338	 0.461751
O	 2.4419868467	 0.1625002108	 2.6683609726	-0.323434
C	 0.6567454932	-0.794880725	 1.1717444222	-0.352107
H	 0.9536308929	 1.9974098257	 0.3723005048	 0.159584
H	-0.1186976142	 1.919935749	-1.0396459527	 0.13826
H	-0.8014687242	 1.914979743	 0.5995896431	 0.121545
H	-1.8049946909	-0.2776771521	-0.1947802761	 0.294566
H	 1.5059261459	-1.5184247193	-0.9216655962	 0.138396
H	 0.0609720839	-1.5527020223	 1.6577338199	 0.130173
136.3814	203.0363	229.0521	282.9881	314.5942	389.9178	419.1522	510.299	521.7647	630.165	729.9253	789.0027	836.062	851.9517	924.016	969.4993	976.2983	1011.7127	1062.4357	1081.7815	1111.2962	1155.0832	1198.2842	1279.5309	1295.1293	1416.8177	1445.8823	1483.113	1506.0767	1942.7082	3038.2908	3102.6634	3147.3718	3223.5806	3240.3765	3798.8442
CC1(O)C2OC(=O)C12	C[C@@]1(O)[C@H]2OC(=O)[C@@H]12	
InChI=1S/C5H6O3/c1-5(7)2-3(5)8-4(2)6/h2-3,7H,1H3	InChI=1S/C5H6O3/c1-5(7)2-3(5)8-4(2)6/h2-3,7H,1H3/t2-,3-,5-/m0/s1
