20
gdb 111532	2.39333	1.67536	1.21118	3.4682	78.66	-0.2407	0.0675	0.3082	1082.9635	0.172646	-403.082207	-403.074276	-403.073332	-403.114365	31.925	
O	 0.5706386327	 0.0645045995	 0.7452005062	-0.431457
C	-0.0906783849	 0.1538902095	-0.5008140419	-0.090804
C	-1.4950243839	-0.4360612301	-0.4651839359	-0.034161
C	-2.0647050245	-1.4417071619	-1.4373946251	-0.080067
C	-1.0056320598	-2.4376163866	-1.9438607119	-0.331545
C	-0.6815758024	-2.7670620104	-0.4730934433	 0.366678
C	-0.2256141529	-4.0415621894	 0.1083981042	-0.331282
N	 0.6448905195	-2.8423259642	 0.1613145695	-0.369942
C	-1.7689402265	-1.8375603494	 0.0175920565	-0.134055
H	 0.6964706307	-0.8821798851	 0.9188043413	 0.294802
H	-0.1525962609	 1.220343259	-0.74328432	 0.101395
H	 0.5035551258	-0.3105467083	-1.3027169485	 0.073969
H	-2.2513297998	 0.2585754305	-0.1061420316	 0.092666
H	-3.0304571185	-1.296781611	-1.9050902639	 0.090119
H	-1.456992064	-3.2875653757	-2.4630601476	 0.112055
H	-0.1924610526	-2.0407474584	-2.5612916358	 0.102247
H	-0.6093110588	-4.3679338905	 1.0714074614	 0.126596
H	 0.054772403	-4.8486647256	-0.5638800629	 0.116354
H	 1.3682190683	-2.9133017525	-0.5509319976	 0.236375
H	-2.4552298605	-2.0494681896	 0.8282218969	 0.090056
136.1546	143.7387	200.0601	250.6584	303.7109	358.754	436.3283	456.8886	553.4769	599.0092	648.0743	755.7232	786.1916	815.1152	846.5786	889.3436	913.9963	938.8401	953.9411	972.9647	989.5501	1004.7952	1025.8601	1061.2479	1069.8968	1085.4788	1098.5452	1128.6879	1168.9826	1181.3466	1239.5198	1243.9789	1260.4784	1271.6719	1302.3728	1323.4459	1385.7909	1424.6322	1431.7898	1467.6168	1484.8421	1509.0854	1514.6169	2978.5746	3041.1252	3062.1617	3094.7644	3104.8815	3135.4525	3183.015	3190.1316	3194.1918	3492.5701	3672.2254
OCC1C2CC3(CN3)C12	OC[C@H]1[C@H]2C[C@]3(CN3)[C@@H]12	
InChI=1S/C7H11NO/c9-2-5-4-1-7(3-8-7)6(4)5/h4-6,8-9H,1-3H2	InChI=1S/C7H11NO/c9-2-5-4-1-7(3-8-7)6(4)5/h4-6,8-9H,1-3H2/t4-,5+,6-,7+/m1/s1
