18
gdb 110250	3.10051	1.15195	0.98406	1.9535	73.98	-0.2461	-0.0019	0.2442	1233.2971	0.146259	-439.012646	-439.003839	-439.002895	-439.046286	32.636	
C	 0.1302015499	 1.4859577426	-0.0684834122	-0.342
N	 0.0309490119	 0.0295410738	 0.0534389371	-0.097702
C	-1.1780084798	-0.5578857806	 0.7720068918	-0.171487
C	-0.3151528678	-1.838885658	 0.992189448	 0.004008
C	-0.0333475755	-2.7479839773	-0.1965130368	-0.115708
O	 1.0165078409	-3.6641170408	 0.0874461408	-0.417318
C	 0.6496735684	-0.6396550608	 1.2707909686	-0.168232
C	-0.5215417808	-0.0008321426	 2.0644499275	 0.431289
O	-0.7408439926	 0.7184598761	 2.9865736867	-0.318706
H	 1.1477613979	 1.7360505748	-0.3833205913	 0.129773
H	-0.5549990463	 1.812276005	-0.8564426161	 0.131347
H	-0.0996028727	 2.0468738813	 0.8497990343	 0.130991
H	-2.187849092	-0.4658432588	 0.374804578	 0.100816
H	-0.5724471106	-2.4234979385	 1.8787358839	 0.096895
H	-0.9174937659	-3.3646413752	-0.3906548205	 0.11191
H	 0.1702820959	-2.1539847601	-1.0930030217	 0.114521
H	 1.8414731989	-3.1689765234	 0.0971819819	 0.284043
H	 1.7244748001	-0.6375638275	 1.4498700802	 0.09556
78.0864	122.5833	162.0038	199.5446	221.1853	295.243	301.9965	373.2572	408.8955	501.5593	551.8239	679.6726	715.0374	768.4498	802.5852	830.9476	857.6686	979.0333	1002.6408	1060.761	1074.9425	1086.4128	1098.6544	1104.4644	1155.5511	1168.5434	1179.4179	1199.5785	1205.4921	1227.2197	1252.666	1358.3535	1404.0734	1416.0467	1450.8862	1494.5847	1501.2878	1504.5008	1904.066	2993.4517	3044.0975	3080.7604	3082.6784	3098.184	3112.6587	3128.6055	3138.3063	3821.6559
CN1C2C(CO)C1C2=O	CN1[C@H]2[C@@H](CO)[C@@H]1C2=O	
InChI=1S/C6H9NO2/c1-7-4-3(2-8)5(7)6(4)9/h3-5,8H,2H2,1H3	InChI=1S/C6H9NO2/c1-7-4-3(2-8)5(7)6(4)9/h3-5,8H,2H2,1H3/t3-,4+,5-
