16
gdb 31405	2.95039	1.355	0.93916	3.968	73.46	-0.2605	-0.0574	0.2031	1206.3407	0.125959	-434.146877	-434.138874	-434.13793	-434.18005	29.177	
C	-0.0761956897	 1.5321363086	 0.1250583577	-0.376317
C	 0.0238510717	 0.0195163133	-0.0430293437	-0.259814
C	 0.7338499311	-0.4484473634	-1.2852312907	 0.354419
N	 1.2079474877	 0.4310504714	-2.1221637392	-0.342224
C	 1.8603679096	 0.0022867002	-3.2636408332	 0.441222
O	 2.3434636596	 0.70726695	-4.1153036275	-0.36798
N	 1.938600979	-1.4135174126	-3.3919823274	-0.320623
C	 1.4156614438	-2.2423164664	-2.4696731237	 0.114079
N	 0.8067216883	-1.8272321702	-1.4043280482	-0.305715
H	 0.9144906773	 1.9917482405	 0.1606807665	 0.133686
H	-0.6127339633	 1.987568705	-0.7108011267	 0.133733
H	-0.6053934594	 1.773659799	 1.0513319537	 0.108051
H	 0.5378015848	-0.4449173817	 0.809205523	 0.131898
H	-0.9694729268	-0.4489233213	-0.0508927167	 0.131908
H	 2.4093647306	-1.7632444926	-4.2153866157	 0.277307
H	 1.5248281355	-3.3095218998	-2.6544484083	 0.146371
66.0328	130.3853	162.6818	186.6934	237.5742	412.6584	413.653	511.7231	573.3827	583.6284	606.8461	722.8948	761.3195	799.3757	829.526	915.651	976.046	991.1118	1011.6405	1090.797	1104.8878	1144.6095	1166.4092	1267.4407	1277.6444	1383.1735	1414.8187	1420.4872	1446.8899	1469.3146	1491.8497	1499.2905	1565.3565	1674.6298	1836.8625	3027.3257	3050.3344	3052.0264	3122.6896	3130.3711	3154.9053	3604.6369
CCC1=NC(=O)NC=N1	CCc1nc(=O)[nH]cn1	
InChI=1S/C5H7N3O/c1-2-4-6-3-7-5(9)8-4/h3H,2H2,1H3,(H,6,7,8,9)	InChI=1S/C5H7N3O/c1-2-4-6-3-7-5(9)8-4/h3H,2H2,1H3,(H,6,7,8,9)
