19
gdb 50335	2.93068	1.39	1.23499	2.6356	80.38	-0.2391	-0.0174	0.2217	1085.5547	0.160318	-385.901691	-385.893902	-385.892957	-385.934641	29.824	
O	-0.324914809	 0.3403270107	-0.7382371788	-0.246533
C	 0.6629351553	 0.6224307532	-0.1069213996	 0.144219
C	 1.3320702449	 1.9669346677	-0.108297998	-0.078317
C	 0.6951187722	 3.1086540245	-0.9329398374	-0.25687
C	 0.8072115933	 4.0685456516	 0.2873481097	-0.001154
C	-0.5058490097	 4.6687652202	 0.8271002102	-0.273765
C	-0.9850612438	 3.615184236	 1.8000612861	-0.054037
C	-0.0940535021	 2.6428590448	 1.998608549	-0.073967
C	 1.1647633829	 2.8437527749	 1.1973641485	-0.091559
H	 1.1447485763	-0.1310207454	 0.5604624141	 0.068515
H	 2.3980689099	 1.8176707513	-0.3169960439	 0.087468
H	 1.2327874214	 3.4047407839	-1.8358012996	 0.102047
H	-0.3371716071	 2.8725688488	-1.2025783953	 0.125205
H	 1.6053984139	 4.8041539216	 0.1767147598	 0.068932
H	-0.3544261403	 5.6324922384	 1.3324138908	 0.103599
H	-1.2298487501	 4.8542147959	 0.0231219838	 0.109032
H	-1.9529474766	 3.6741587054	 2.2867330226	 0.09598
H	-0.2358701984	 1.8014213897	 2.6685977764	 0.096249
H	 2.061323297	 2.8952530569	 1.8228302815	 0.074956
62.5017	81.6383	186.8214	242.1549	307.5161	382.1597	467.4178	593.4281	667.4449	701.7231	747.3619	781.8702	796.5923	854.9096	893.6751	919.3013	936.015	943.35	966.9732	984.88	1026.9147	1051.9644	1075.0352	1096.1303	1123.8238	1137.9315	1179.7835	1198.9107	1216.0171	1243.899	1265.8716	1300.3067	1310.4322	1331.6802	1353.8563	1384.0173	1423.9207	1482.3534	1489.3913	1677.55	1820.8224	2849.0298	3010.5269	3038.4573	3040.8	3054.9443	3070.3425	3093.3165	3125.8994	3177.3038	3202.2965
O=CC1CC2CC=CC12	O=C[C@H]1C[C@H]2CC=C[C@@H]12	
InChI=1S/C8H10O/c9-5-7-4-6-2-1-3-8(6)7/h1,3,5-8H,2,4H2	InChI=1S/C8H10O/c9-5-7-4-6-2-1-3-8(6)7/h1,3,5-8H,2,4H2/t6-,7-,8-/m1/s1
