20
gdb 13214	4.77016	1.17745	1.13212	1.597	71.22	-0.2524	0.0718	0.3242	1156.1208	0.176641	-386.126949	-386.118164	-386.11722	-386.160565	32.083	
C	 0.0886453534	 1.548291687	 0.1252275532	-0.383238
C	-0.0560747219	 0.0358136745	-0.0525421368	-0.187984
C	 0.725020795	-0.5026356449	-1.2608052359	 0.113004
O	 2.1034016849	-0.1636774335	-1.1931464914	-0.439365
C	 0.5793174306	-2.0163753381	-1.3953883054	 0.137935
C	 1.3718223638	-2.7287610469	-2.5121390848	-0.295438
C	 2.017956341	-3.5176853985	-1.3588949309	-0.06506
O	 1.3616187307	-2.6903921086	-0.3676592589	-0.311622
H	 1.1423619227	 1.8232329224	 0.2162876991	 0.130589
H	-0.3220923716	 2.0881711805	-0.7356147901	 0.109845
H	-0.4390086824	 1.8941542332	 1.0191346292	 0.107839
H	 0.2964338029	-0.4874490988	 0.8459656682	 0.107642
H	-1.1139465159	-0.2324212891	-0.1717027596	 0.090269
H	 0.3444621238	-0.0353952167	-2.1798190361	 0.082626
H	 2.4694788325	-0.7496990579	-0.5163338592	 0.284013
H	-0.4777457379	-2.3091480492	-1.335882127	 0.071867
H	 0.7887643062	-3.3037938879	-3.2322010885	 0.107121
H	 2.0609634906	-2.0621221326	-3.0317022457	 0.127091
H	 1.6988078799	-4.5640907789	-1.2771240798	 0.104994
H	 3.1088617517	-3.469076586	-1.2729831296	 0.107874
81.1343	87.8351	120.4767	178.1379	227.5045	280.8663	300.4681	366.7292	475.3143	507.4248	666.2257	723.5117	786.7317	820.0751	858.311	909.446	954.1958	974.1672	987.9241	1016.1552	1041.0412	1072.899	1096.9761	1129.1905	1149.9882	1176.0715	1221.3813	1246.3341	1261.0502	1272.2468	1304.3676	1329.5138	1359.2589	1372.7917	1394.2839	1409.5319	1433.3056	1480.3927	1484.869	1497.338	1510.4567	1528.1521	3008.2823	3018.5535	3020.4844	3022.8628	3035.7172	3057.4438	3067.9557	3087.2893	3100.2791	3124.8776	3147.5642	3751.2001
CCC(O)C1CCO1	CC[C@@H](O)[C@H]1CCO1	
InChI=1S/C6H12O2/c1-2-5(7)6-3-4-8-6/h5-7H,2-4H2,1H3	InChI=1S/C6H12O2/c1-2-5(7)6-3-4-8-6/h5-7H,2-4H2,1H3/t5-,6-/m1/s1
