18
gdb 49990	3.28727	1.15246	1.06832	2.9853	78.07	-0.2413	-0.0204	0.2209	1179.9869	0.147039	-401.895313	-401.887372	-401.886428	-401.928054	30.464	
O	 0.005467776	-0.0015676348	-0.4245814501	-0.269446
C	 0.0683564546	 1.141232704	-0.0412676725	 0.16425
C	 1.3043220933	 1.9454477197	 0.0293717879	-0.163023
C	 1.2007899115	 3.4689182759	-0.1199811047	-0.379966
C	 1.5051655573	 2.8953594837	 1.2024936828	 0.36831
C	 0.7333709421	 3.0416346242	 2.5213545463	-0.34303
C	 2.1128592901	 3.1314855295	 3.1734078691	-0.017903
C	 2.9521666134	 1.9735839077	 2.8173606494	-0.235138
N	 2.8376172579	 3.0711851175	 1.8295882682	-0.164748
H	-0.8464413108	 1.6827486935	 0.3005162656	 0.062247
H	 2.1960550473	 1.4620272017	-0.3557558013	 0.116382
H	 2.0065711138	 3.9539612587	-0.6590632293	 0.141118
H	 0.21199521	 3.8860242227	-0.2887769053	 0.124444
H	 0.1684787345	 3.9751421943	 2.5699454766	 0.121799
H	 0.0937308244	 2.2173936142	 2.849297269	 0.116885
H	 2.4005728512	 3.8533740743	 3.9296492149	 0.105374
H	 3.9420778624	 1.9146146472	 3.258384435	 0.127079
H	 2.4930931909	 1.0142850461	 2.5892355985	 0.125366
77.9569	130.5824	179.097	222.6148	340.9018	355.148	427.9329	461.8405	518.5287	574.4119	753.9129	772.1141	802.8008	854.9536	879.6117	904.9515	928.27	984.4897	999.9367	1025.0788	1045.5147	1058.7247	1072.1913	1091.8375	1115.5913	1133.6613	1169.2908	1172.2261	1193.3853	1229.4172	1270.1066	1296.6607	1359.6209	1387.4273	1442.9665	1476.4951	1486.3789	1504.8605	1814.3713	2839.2433	3057.379	3110.3686	3113.2074	3126.103	3174.7931	3177.3538	3206.2055	3222.1817
O=CC1CC11CC2CN12	O=C[C@H]1C[C@]21C[C@H]1CN21	
InChI=1S/C7H9NO/c9-4-5-1-7(5)2-6-3-8(6)7/h4-6H,1-3H2	InChI=1S/C7H9NO/c9-4-5-1-7(5)2-6-3-8(6)7/h4-6H,1-3H2/t5-,6+,7-,8?/m1/s1
