18
gdb 36698	4.85958	0.79274	0.75157	5.6677	77.11	-0.236	0.0284	0.2644	1497.1737	0.149088	-398.07825	-398.069913	-398.068969	-398.112094	30.898	
N	 0.022996484	-1.1342944527	-0.1477617236	-0.300238
C	 0.0601139701	 0.005717818	 0.0336103585	 0.260171
C	 0.1112282237	 1.4485792474	 0.2897381122	-0.266059
N	 1.2804256881	 2.0525069236	-0.3325008251	-0.298963
C	 1.3754420881	 3.4789008836	-0.1302764923	 0.057835
C	 1.6499729667	 4.1039575173	 1.3115387347	-0.25811
C	 2.9533980616	 4.671326872	 0.7509583147	-0.038758
N	 3.7356305258	 3.4987310606	 0.2866925879	-0.340044
C	 2.6977520495	 4.0904225896	-0.5953102153	-0.077005
H	-0.792424244	 1.9022009398	-0.1379235788	 0.151678
H	 0.046225027	 1.5987265587	 1.3828867789	 0.133453
H	 2.1332557048	 1.6214878827	 0.0127794703	 0.244425
H	 0.51285348	 3.9673703083	-0.5947612262	 0.086981
H	 0.9160437279	 4.8665172863	 1.5809964192	 0.105498
H	 1.7718215243	 3.3964351112	 2.1361961527	 0.104981
H	 3.4492561929	 5.59583189	 1.0173281157	 0.09999
H	 4.6380373685	 3.8374875531	-0.0440361369	 0.234786
H	 2.949720571	 4.4469783405	-1.5860237065	 0.099378
55.2744	100.3605	115.5581	204.8399	256.5813	369.9272	391.0257	442.7216	502.8537	615.8843	684.7845	787.0217	813.1154	833.8905	860.3434	901.6319	936.62	957.9881	986.7385	1000.4144	1011.5347	1033.737	1091.2478	1107.6939	1133.6286	1153.2923	1182.1319	1206.7856	1248.1571	1260.6026	1298.4631	1328.5891	1336.5706	1379.4279	1402.7112	1469.8163	1490.1753	1500.5865	2368.2447	2939.8933	3040.3512	3057.8457	3062.0953	3122.1131	3191.171	3204.6524	3484.2112	3518.9055
N#CCNC1CC2NC12	N#CCN[C@H]1C[C@H]2N[C@@H]12	
InChI=1S/C6H9N3/c7-1-2-8-4-3-5-6(4)9-5/h4-6,8-9H,2-3H2	InChI=1S/C6H9N3/c7-1-2-8-4-3-5-6(4)9-5/h4-6,8-9H,2-3H2/t4-,5+,6-/m0/s1
