18
gdb 62739	2.52722	1.54278	1.25033	3.4899	72.33	-0.2436	0.0019	0.2455	1070.6177	0.146039	-439.083295	-439.074218	-439.073274	-439.116436	34.274	
C	 0.0212238995	 1.5362117967	 0.0409195536	-0.46385
C	 0.0475223428	 0.0197504701	 0.0398037006	 0.244619
C	-1.1926390443	-0.6272832202	-0.5551776146	-0.448536
C	 1.3073530863	-0.7510791054	-0.1576265394	 0.011776
O	 2.4449369286	-0.0147886605	 0.3644158329	-0.264634
C	 1.9370485404	-0.1172055846	 1.6587116888	 0.407569
O	 2.4760750104	 0.1913481405	 2.6718584675	-0.333672
C	 0.6568089521	-0.7976831924	 1.2200766908	 0.047241
N	-0.0731748964	-1.8048434771	 1.8935631649	-0.596964
H	 0.958811482	 1.9662080129	 0.3963521789	 0.148086
H	-0.153174211	 1.9074121786	-0.975019617	 0.122721
H	-0.7926466907	 1.9062263697	 0.6733844464	 0.120876
H	-1.3344434303	-0.2730574705	-1.5817644821	 0.122903
H	-1.1238726629	-1.7164381261	-0.5626150766	 0.138311
H	-2.0855142161	-0.3561618294	 0.0179079468	 0.123545
H	 1.512900488	-1.5330526999	-0.8756366458	 0.126614
H	 0.542820324	-2.4399523753	 2.3902360628	 0.247142
H	-0.7150601925	-1.4064745271	 2.5710730414	 0.246253
122.424	176.1385	183.1105	193.3718	245.1126	268.748	285.9844	313.7015	353.7189	408.6265	530.0669	551.1809	637.7838	702.1012	732.0621	784.3923	795.5364	902.9271	907.7654	957.7966	971.9824	980.9781	1024.0857	1052.4786	1103.4885	1149.5632	1220.256	1246.5156	1276.7322	1329.7167	1406.5133	1425.2431	1447.5677	1478.3469	1486.1788	1501.4081	1512.2552	1664.9379	1929.5899	3035.6181	3039.859	3093.9574	3098.4553	3135.1723	3139.2726	3217.9286	3504.1694	3578.9094
CC1(C)C2OC(=O)C12N	CC1(C)[C@H]2OC(=O)[C@@]12N	
InChI=1S/C6H9NO2/c1-5(2)3-6(5,7)4(8)9-3/h3H,7H2,1-2H3	InChI=1S/C6H9NO2/c1-5(2)3-6(5,7)4(8)9-3/h3H,7H2,1-2H3/t3-,6-/m1/s1
