21
gdb 114280	3.17731	1.23268	1.08555	1.2083	86.15	-0.221	0.0243	0.2453	1223.7368	0.183176	-387.062861	-387.054385	-387.05344	-387.09605	32.57	
C	-0.0377959935	 1.3609801115	-0.3232042885	-0.235038
O	-0.0977694788	 0.1056822141	 0.3148363283	-0.234375
C	-1.3327184835	-0.5416883712	 0.1719943299	 0.111471
C	-1.5232030795	-1.2814275839	-1.2198087279	-0.366514
C	-1.0280405064	-2.513663122	-0.4981544738	 0.309903
C	-0.1112269197	-3.47378689	-0.4963296942	-0.226014
C	 0.2767372287	-3.7926563847	 0.9469450391	-0.237656
C	-0.1660121651	-2.5123869656	 1.7339494212	-0.242864
C	-1.3074465596	-1.9504619471	 0.8689236628	-0.062197
H	 0.9514531351	 1.7792449919	-0.1225066423	 0.12791
H	-0.1731756908	 1.2810046107	-1.4119350877	 0.107326
H	-0.8028486786	 2.0497749869	 0.0682495011	 0.105089
H	-2.1555552152	 0.129941556	 0.4591973978	 0.058158
H	-2.5801973411	-1.3193839518	-1.5046799432	 0.106862
H	-0.9370655713	-0.9178388232	-2.067609011	 0.112018
H	 0.3794109991	-3.9196421157	-1.3540376896	 0.087555
H	-0.2307398703	-4.6925206199	 1.3236681198	 0.099815
H	 1.3511946455	-3.9830576988	 1.045503601	 0.099937
H	-0.4556758963	-2.7276976473	 2.7662777604	 0.087357
H	 0.6589102856	-1.794658088	 1.7555557664	 0.121492
H	-2.3055583945	-2.1833210719	 1.2596279804	 0.069767
81.4595	120.2265	169.0272	205.2619	232.7531	307.3766	357.8737	416.8568	509.2473	588.0535	656.0445	764.0147	776.1233	809.3009	837.3322	866.1526	900.6823	937.1447	954.1417	962.4715	988.9095	1047.008	1078.1067	1097.8872	1121.2749	1146.8826	1175.7093	1179.8885	1185.4437	1213.9687	1222.4169	1244.8341	1260.8007	1276.4421	1306.2508	1331.1777	1339.4239	1378.6487	1460.85	1481.1197	1484.2594	1486.9933	1498.5045	1508.8217	1737.8917	2975.0726	2985.3124	3001.8645	3025.805	3026.153	3045.2943	3055.126	3063.3514	3103.6726	3108.8037	3115.3492	3194.1879
COC1CC2=CCCC12	CO[C@H]1C[C]2[CH]CC[C@@H]12	
InChI=1S/C8H12O/c1-9-8-5-6-3-2-4-7(6)8/h3,7-8H,2,4-5H2,1H3	InChI=1S/C8H12O/c1-9-8-5-6-3-2-4-7(6)8/h3,7-8H,2,4-5H2,1H3/t7-,8+/m1/s1
