17
gdb 45282	2.82982	1.72198	1.2644	2.0069	72.84	-0.2412	-0.0276	0.2136	995.9533	0.13613	-421.793075	-421.785858	-421.784914	-421.824809	28.352	
O	-0.0821924578	-0.0102126733	-0.0295130937	-0.303913
C	-0.0293598147	 1.1863002078	-0.0003448237	 0.311868
C	-1.1004467873	 2.3080480354	 0.0886599631	-0.370967
C	 0.0192869009	 3.3490105879	-0.1860043073	 0.051439
O	 0.5161939902	 4.0208253975	 0.9876414051	-0.293466
C	 1.5140541781	 3.0064774629	 1.1651780458	 0.075566
C	 2.8796019572	 3.2709762248	 0.4703859939	-0.237197
C	 2.5076010385	 2.2617619084	-0.6637669394	-0.360467
C	 1.0810057976	 2.1999279258	-0.1184418579	 0.188321
H	-1.8487635356	 2.2308826834	-0.7059562033	 0.136584
H	-1.6053264201	 2.4148265851	 1.0517044055	 0.140255
H	-0.1163420526	 4.0176211992	-1.0385138691	 0.091136
H	 1.5305142272	 2.5917830337	 2.1760101766	 0.094502
H	 2.9643619581	 4.3097421468	 0.1451061173	 0.122335
H	 3.7587797957	 3.0088246628	 1.06245395	 0.11328
H	 2.6200679087	 2.5997502526	-1.6965849231	 0.111625
H	 3.0197348961	 1.3020610591	-0.5549920099	 0.129098
108.5611	133.6772	232.7324	283.7535	424.1313	435.9294	495.3303	555.2925	630.8672	687.0593	744.3588	793.4772	832.5764	868.6735	879.0616	929.2971	946.2231	989.1578	1022.873	1037.4098	1068.6766	1092.4315	1118.6773	1131.9621	1179.5752	1183.259	1219.3031	1228.7849	1254.4263	1269.771	1298.8697	1323.3918	1354.9199	1420.5996	1467.3387	1485.3124	1878.3192	3062.9745	3063.147	3072.2424	3083.5276	3093.7062	3110.3942	3126.3593	3135.587
O=C1CC2OC3CCC123	O=C1C[C@H]2O[C@@H]3CC[C@]123	
InChI=1S/C7H8O2/c8-4-3-6-7(4)2-1-5(7)9-6/h5-6H,1-3H2	InChI=1S/C7H8O2/c8-4-3-6-7(4)2-1-5(7)9-6/h5-6H,1-3H2/t5-,6-,7-/m1/s1
