19
gdb 81550	4.10104	1.23871	1.08894	0.7989	75.18	-0.2326	0.0667	0.2993	1135.1647	0.159676	-422.950066	-422.942248	-422.941303	-422.982429	30.817	
O	 0.0523599144	 1.4452680523	-0.2856271813	-0.45349
C	 0.009774376	 0.0649617652	-0.0641218127	 0.192204
C	 0.0667464058	-0.5300729364	 1.3800319368	-0.184571
C	-1.4260560744	-0.0982790167	 1.5491724191	-0.273492
C	-1.3477201308	-0.6910644424	 0.1048784974	-0.184561
C	-0.4963805515	-1.820521912	 0.735333437	 0.549917
C	 0.3026256529	-2.9018424202	-0.0143095379	-0.386479
C	-0.4300538667	-3.8794727095	 0.9224989854	-0.088966
O	-1.1362169993	-2.7987234234	 1.5685827587	-0.334232
H	-0.5480268534	 1.8842365835	 0.3253495521	 0.283177
H	 0.7086206188	-0.3665965166	-0.7848485092	 0.084184
H	 0.8746669996	-0.4507743152	 2.1085272074	 0.073279
H	-2.0132265851	-0.6636230959	 2.2718782972	 0.128073
H	-1.6358108001	 0.9708262447	 1.6468430929	 0.076639
H	-2.1542064386	-0.7955011172	-0.622033078	 0.073279
H	 0.0685329917	-3.0035825623	-1.0757026258	 0.116985
H	 1.385933957	-2.8532458084	 0.1113054775	 0.11698
H	-1.1188080453	-4.5807232916	 0.4375192714	 0.105542
H	 0.202553599	-4.429428628	 1.6286933219	 0.105533
72.886	178.4628	214.8761	227.981	314.7065	370.3439	437.3296	455.9715	545.2715	656.0522	709.6105	791.8116	814.6394	859.4468	867.6572	899.1105	916.5611	969.0582	999.4803	1015.7092	1039.1441	1044.8353	1059.4577	1094.8315	1127.2795	1142.7598	1159.3169	1166.0707	1182.1014	1195.4341	1215.2656	1242.1841	1244.4725	1263.6185	1287.6534	1324.6457	1354.6713	1464.8653	1484.7829	1529.6386	1536.0229	3024.1763	3056.8601	3064.9981	3074.0992	3085.3595	3106.0901	3112.3644	3128.2548	3143.7034	3817.8704
OC1C2CC1C21CCO1	O[C@H]1[C@H]2C[C@@H]1[C@]12CCO1	
InChI=1S/C7H10O2/c8-6-4-3-5(6)7(4)1-2-9-7/h4-6,8H,1-3H2	InChI=1S/C7H10O2/c8-6-4-3-5(6)7(4)1-2-9-7/h4-6,8H,1-3H2/t4-,5+,6+,7-
