21
gdb 100859	1.96329	1.14727	0.7744	3.5805	81.11	-0.2525	-0.0577	0.1949	1497.8846	0.178104	-424.247436	-424.236427	-424.235483	-424.28486	37.953	
C	 0.0799216694	 1.5408542836	 0.0552514522	-0.396305
C	-0.0030089103	 0.0133670738	-0.0285171144	-0.181651
C	-1.4393765175	-0.5480806149	-0.0351061713	 0.001838
C	-2.231297991	-0.1039537888	-1.2737565561	-0.409373
C	-1.4156467388	-2.1040565517	 0.0712041176	-0.149952
C	-0.7093824939	-2.5354934545	 1.3490095686	 0.147335
O	 0.2487246393	-3.2601233356	 1.392104201	-0.241316
C	-2.8385227199	-2.6452374754	 0.1106968351	 0.146471
O	-3.3010323709	-3.4152494323	-0.6879176428	-0.240858
H	 1.1224025387	 1.8635913442	 0.1328747745	 0.122421
H	-0.3474733437	 2.0282439605	-0.8257408125	 0.123817
H	-0.4501744361	 1.9191175549	 0.9366726754	 0.116401
H	 0.5166157187	-0.3383796381	-0.929524781	 0.108098
H	 0.5487029147	-0.4130238445	 0.8176652036	 0.112969
H	-1.9555606112	-0.1670586701	 0.8596598154	 0.080124
H	-3.2535450811	-0.4932035514	-1.2679216503	 0.130159
H	-2.2957122972	 0.9854117069	-1.3285120844	 0.124855
H	-1.7492941007	-0.4608879832	-2.1908065891	 0.128445
H	-0.898479497	-2.551536176	-0.7818075553	 0.113786
H	-1.157019694	-2.1165968	 2.2809049549	 0.081321
H	-3.4503005175	-2.2584123972	 0.9591365989	 0.081416
50.5967	55.3399	72.699	85.5595	181.451	197.2145	214.4039	278.8719	287.3525	301.71	362.46	377.6428	451.8544	541.3571	548.0745	769.9406	825.1849	901.7604	911.0061	964.204	990.4816	996.3297	1039.7137	1056.83	1109.7971	1152.4446	1157.5734	1175.7899	1241.083	1247.1999	1303.3722	1342.3745	1367.2367	1383.9296	1412.5643	1420.0024	1422.4573	1437.9412	1480.5221	1495.0846	1498.5065	1505.7507	1512.6568	1813.6735	1847.7147	2844.3182	2863.6067	2987.6454	3023.7758	3035.7871	3040.7154	3058.2777	3091.3168	3102.282	3106.6164	3111.3394	3123.2167
CCC(C)C(C=O)C=O	CC[C@@H](C)C(C=O)C=O	
InChI=1S/C7H12O2/c1-3-6(2)7(4-8)5-9/h4-7H,3H2,1-2H3	InChI=1S/C7H12O2/c1-3-6(2)7(4-8)5-9/h4-7H,3H2,1-2H3/t6-/m1/s1
