18
gdb 96733	1.87237	1.36854	0.85118	4.3245	78.13	-0.2551	-0.0163	0.2389	1364.0725	0.145518	-439.098073	-439.088388	-439.087444	-439.134	33.368	
C	 0.151122586	 1.4643257112	-0.6831273695	-0.332179
N	 0.0913022994	 0.1430215051	-0.0993409439	-0.305029
C	-0.9600988856	-0.3394750477	 0.4016809496	 0.428044
O	-0.9222851946	-1.6251701044	 0.9345888775	-0.227773
C	 0.0425059313	-2.5025067889	 0.519745485	 0.173178
O	 0.1610828357	-3.5689679297	 1.0392610099	-0.264017
C	-2.3094425253	 0.2428230393	 0.5751111224	-0.098602
C	-3.5496611121	-0.6272894643	 0.438419312	-0.260837
C	-3.1529143745	-0.1209220623	 1.787397803	-0.257852
H	 0.8727291022	 2.0683857106	-0.1215503135	 0.13804
H	 0.5367452222	 1.3823979174	-1.7053073089	 0.136186
H	-0.7979217354	 2.0136843823	-0.7221838633	 0.112284
H	 0.6377294706	-2.1087983312	-0.3130750406	 0.125463
H	-2.4025962505	 1.2612721691	 0.2238384628	 0.102257
H	-4.4029692485	-0.1817037588	-0.0598631237	 0.122398
H	-3.3948977406	-1.6787413678	 0.2313105538	 0.139269
H	-2.7283315571	-0.8305374764	 2.4858929339	 0.146998
H	-3.7275803031	 0.6814045865	 2.2356069533	 0.122172
63.5084	68.9218	80.6027	102.9544	164.2367	220.972	261.0956	296.9093	340.7564	467.4309	562.9596	609.2234	698.2661	787.1442	830.3232	843.6213	913.9904	937.2625	1038.1302	1047.4404	1070.3608	1089.4886	1094.6584	1121.4035	1130.1702	1137.6212	1150.7845	1205.4997	1227.9174	1266.221	1383.3214	1397.0069	1451.2796	1463.2299	1485.3502	1495.9416	1502.5919	1768.8851	1863.6925	3011.3231	3075.124	3079.5863	3082.7936	3147.4451	3150.7701	3201.8982	3235.3502	3249.6781
CN=C(OC=O)C1CC1	CN=C(OC=O)C1CC1	
InChI=1S/C6H9NO2/c1-7-6(9-4-8)5-2-3-5/h4-5H,2-3H2,1H3	InChI=1S/C6H9NO2/c1-7-6(9-4-8)5-2-3-5/h4-5H,2-3H2,1H3
