23
gdb 112837	2.82584	1.13647	0.91926	1.4367	84.92	-0.2521	0.0758	0.3279	1368.2647	0.206763	-388.295026	-388.285848	-388.284904	-388.328817	35.8	
C	-0.0745559834	 1.5520494811	-0.0582071539	-0.383202
C	 0.0019448288	 0.0225287763	-0.0161143628	-0.177822
C	 0.7097544057	-0.5314230163	 1.2271591784	 0.031986
C	 0.0089889129	-0.2178821934	 2.5703282104	-0.287071
C	 0.4421977655	-1.339076557	 3.5456396664	 0.125148
O	-0.5294887439	-1.6447198536	 4.5380817956	-0.438832
C	 0.7009625603	-2.5448032	 2.6640491203	-0.041758
C	-0.3459093361	-2.8765250382	 1.630313136	-0.285905
C	 0.8582238663	-2.0529700647	 1.2436733311	-0.049375
H	 0.9251347173	 1.9996862327	-0.0160306849	 0.110977
H	-0.554413952	 1.8994711479	-0.9784943258	 0.110692
H	-0.6501002684	 1.9495872231	 0.7842751875	 0.11636
H	-1.0095239768	-0.4009724039	-0.0679498448	 0.094838
H	 0.5282358228	-0.3382227343	-0.9094341782	 0.090673
H	 1.7231285758	-0.1044234685	 1.2573319212	 0.066273
H	 0.249437598	 0.7787837463	 2.9512623445	 0.090816
H	-1.0804297506	-0.2643232599	 2.4590781921	 0.106671
H	 1.3923985322	-1.0585042072	 4.0289370694	 0.060894
H	-0.6230539625	-0.8743626376	 5.1074020983	 0.278341
H	 1.3123366973	-3.346180509	 3.0627461614	 0.080779
H	-0.3732800871	-3.901682102	 1.2781023511	 0.107517
H	-1.3233604238	-2.4118346232	 1.6988392202	 0.115826
H	 1.5883358116	-2.5002634588	 0.5769583064	 0.076175
90.705	112.0476	150.9744	191.9978	246.1538	276.5008	312.9623	386.1257	412.2504	458.6837	541.1121	587.3468	619.4924	776.9086	786.6832	826.5847	842.9646	897.4152	948.8629	961.2264	972.7605	988.1533	992.3579	1052.332	1061.4608	1071.0013	1078.3949	1096.4362	1113.0005	1146.2216	1169.8578	1204.4734	1207.3301	1246.5404	1265.1738	1297.4552	1313.4885	1342.6711	1354.8643	1356.1259	1388.5246	1402.0319	1412.4418	1432.6743	1485.1198	1487.2648	1500.369	1506.9021	1510.5453	2960.082	2990.9417	3016.4083	3029.4338	3042.3261	3049.2618	3089.1082	3095.4493	3102.1048	3136.6436	3156.6969	3174.4234	3217.5072	3814.9833
CCC1CC(O)C2CC12	CC[C@H]1C[C@@H](O)[C@H]2C[C@@H]12	
InChI=1S/C8H14O/c1-2-5-3-8(9)7-4-6(5)7/h5-9H,2-4H2,1H3	InChI=1S/C8H14O/c1-2-5-3-8(9)7-4-6(5)7/h5-9H,2-4H2,1H3/t5-,6-,7-,8+/m0/s1
