19
gdb 106503	2.56571	1.65961	1.25325	2.1659	70.35	-0.2379	0.0457	0.2836	1039.7937	0.159985	-460.134953	-460.126793	-460.125849	-460.167454	32.14	
O	 0.2167194894	 0.682870798	 1.0506352817	-0.425968
C	-0.1783061619	 0.1970531985	-0.233185372	-0.225213
C	-1.4918249992	-0.5148373944	-0.0489770094	 0.406255
C	-1.6717364373	-1.9529994445	 0.4824639517	-0.27134
C	-2.9249301488	-1.7895891346	-0.4023717631	 0.065512
C	-3.7831141235	-0.7531855765	 0.347656097	-0.235855
C	-2.6441282868	 0.2598874213	 0.6561122015	 0.101246
O	-2.4632514582	 0.417828359	 2.0473700105	-0.44786
O	-2.1344327486	-0.9221165225	-1.2929482877	-0.343821
H	 1.0001597387	 1.2297337696	 0.9463039551	 0.299658
H	-0.3297058149	 1.0224159423	-0.9454385441	 0.107808
H	 0.5767646844	-0.4813189986	-0.6541472784	 0.103411
H	-0.9448517083	-2.6394659439	 0.0460634267	 0.101628
H	-1.7930131705	-2.1019262126	 1.5558012367	 0.114967
H	-3.4124319825	-2.6188778307	-0.9137709217	 0.078593
H	-4.5643786437	-0.3390838303	-0.2920974338	 0.105266
H	-4.2288354882	-1.1331379985	 1.269836844	 0.112941
H	-2.8050596466	 1.2270154203	 0.1588595522	 0.063399
H	-1.5743073736	 0.779718598	 2.1608548633	 0.289373
86.1189	174.9359	210.671	230.5496	315.3634	341.4707	402.7755	439.8707	503.69	532.4724	547.0505	645.0922	721.381	834.6845	847.0055	871.1819	900.7708	943.3942	961.7238	994.0356	1013.7047	1037.5784	1061.3372	1090.2908	1106.5441	1164.2621	1178.9799	1198.5228	1218.9529	1231.3943	1268.8191	1283.9436	1291.3849	1306.9902	1329.0645	1375.3744	1417.4493	1465.9904	1475.8076	1492.484	1519.4443	2987.662	2998.5611	3028.5888	3075.8125	3082.7602	3128.325	3131.6014	3154.5425	3763.1921	3841.8413
OCC12CC(CC1O)O2	OC[C@@]12C[C@@H](C[C@H]1O)O2	
InChI=1S/C6H10O3/c7-3-6-2-4(9-6)1-5(6)8/h4-5,7-8H,1-3H2	InChI=1S/C6H10O3/c7-3-6-2-4(9-6)1-5(6)8/h4-5,7-8H,1-3H2/t4-,5-,6+/m1/s1
