21
gdb 40226	2.05549	2.00346	1.26365	1.5891	81.42	-0.2366	0.0577	0.2943	1072.9055	0.185182	-383.230083	-383.22204	-383.221096	-383.262739	32.184	
C	-0.4296411457	 1.501036839	 0.092131206	-0.288472
N	 0.9759888472	 1.081040065	-0.0996412053	-0.386189
C	-0.0709946067	 0.0644425453	-0.0372205954	 0.296218
C	-0.1376646406	-0.8926952532	 1.1415652781	-0.28171
C	-1.4283281074	-1.6830896796	 0.8508682747	-0.213784
C	-1.4813209617	-1.8167861459	-0.6970520843	-0.283335
C	-0.5079144921	-0.759406162	-1.2328601126	 0.304364
C	-0.5124494956	-0.2371326877	-2.6151757612	-0.319211
N	 0.4984584276	-1.2324817365	-2.2081183823	-0.355663
H	-0.6466312596	 1.9224265372	 1.0706440685	 0.116657
H	-0.945543202	 1.9806025484	-0.7353042104	 0.111002
H	 1.2599303252	 1.2541560433	-1.0632151655	 0.221159
H	 0.7359908162	-1.5558256259	 1.1210739313	 0.107411
H	-0.1439523972	-0.3804176486	 2.1064416719	 0.101234
H	-1.4528099109	-2.6522839938	 1.3544621355	 0.100861
H	-2.2931681346	-1.1134337724	 1.2072016244	 0.101836
H	-1.1490343288	-2.8019371512	-1.0342621706	 0.120133
H	-2.4957928374	-1.6659817087	-1.0777379051	 0.101505
H	-1.2501551204	-0.5967550926	-3.3279240676	 0.119938
H	-0.1949606989	 0.7903542133	-2.789097648	 0.100124
H	 1.3911350133	-0.7695685235	-2.0441883019	 0.225922
56.9863	151.6796	228.0479	251.7082	333.291	352.8644	395.0872	504.9694	531.4461	563.2602	624.6607	792.2272	809.2922	836.6087	870.9201	894.9591	909.3571	934.3432	948.5469	950.2642	971.8721	979.2218	1016.5597	1055.5451	1069.9012	1090.6302	1113.1775	1145.0826	1152.4763	1197.0512	1247.0411	1249.3996	1254.8201	1269.1392	1298.7833	1318.1335	1324.1723	1337.2262	1399.4328	1410.7617	1485.5125	1489.7489	1507.5344	1509.4846	1515.8971	3035.5507	3046.4389	3058.3433	3089.13	3092.3504	3102.1701	3103.1648	3111.2455	3172.7659	3189.1833	3461.5283	3474.3225
C1NC11CCCC11CN1	C1N[C@]21CCC[C@]12CN1	
InChI=1S/C7H12N2/c1-2-6(4-8-6)7(3-1)5-9-7/h8-9H,1-5H2	InChI=1S/C7H12N2/c1-2-6(4-8-6)7(3-1)5-9-7/h8-9H,1-5H2/t6-,7+
