15
gdb 56738	2.4896	1.40209	1.07468	2.173	66.14	-0.2702	-0.0452	0.225	1104.1741	0.110694	-453.923125	-453.914136	-453.913192	-453.957163	31.797	
O	 0.5776527534	 1.5462217633	-0.1818864053	-0.398802
C	 0.149448184	 0.2120702568	 0.0064405291	-0.099087
C	 0.4151191944	-0.5989711271	-1.1993059164	 0.264237
N	 0.6826513871	-1.226123471	-2.132731929	-0.324014
C	 0.76821813	-0.4167921232	 1.2509099482	 0.165922
C	 1.1260173871	-1.8708609677	 1.3205461386	-0.267298
N	 2.1777356091	-0.8591663954	 1.2704704608	-0.344592
C	 0.3073325083	 0.2037965011	 2.5377623418	 0.141919
O	-0.7069302369	 0.8407953152	 2.6484943681	-0.253666
H	 1.5367678607	 1.5516747565	-0.2850776704	 0.296666
H	-0.9313800902	 0.2779076378	 0.1663279817	 0.167665
H	 1.0303242021	-2.3912117573	 2.2694281462	 0.138202
H	 0.9278077983	-2.4725438827	 0.4387268474	 0.158952
H	 2.5710991669	-0.8229081829	 0.3309085396	 0.249309
H	 0.9817561058	-0.0105918333	 3.3942813996	 0.104588
60.3712	129.5508	149.9806	188.5533	210.656	247.6693	324.0304	328.9875	365.9145	477.5849	499.881	604.1963	629.6798	758.1733	828.6731	910.2083	948.3891	974.308	989.5091	1051.398	1068.2241	1098.4908	1145.6797	1248.6537	1256.829	1278.6018	1327.4131	1372.906	1411.6534	1418.9628	1505.4742	1828.45	2351.5693	2913.284	3082.0835	3117.4068	3209.7445	3479.9756	3795.8374
OC(C#N)C1(CN1)C=O	O[C@@H](C#N)[C@]1(CN1)C=O	
InChI=1S/C5H6N2O2/c6-1-4(9)5(3-8)2-7-5/h3-4,7,9H,2H2	InChI=1S/C5H6N2O2/c6-1-4(9)5(3-8)2-7-5/h3-4,7,9H,2H2/t4-,5-/m0/s1
