16
gdb 37272	3.72386	2.01967	1.9286	3.1297	68.47	-0.2361	0.0575	0.2936	771.5338	0.12731	-400.651633	-400.646249	-400.645305	-400.681037	23.705	
O	-0.0382408563	 1.4240600404	-0.0069142958	-0.236028
C	 1.2641801492	 0.8250077019	 0.0250875531	 0.01672
C	 0.0432237321	-0.0034570218	 0.0440638747	 0.036378
C	 0.0061081795	-0.7082316466	-1.3144196631	-0.026191
C	 1.468036652	-0.8486603467	-1.8141404903	-0.103824
C	 0.9763759893	-0.2631447873	-3.1732730471	-0.070285
C	 0.9839048061	 1.064668896	-2.5192205576	-0.033187
C	 1.8783710801	 0.5996543312	-1.3551921564	-0.079849
N	-0.2582812923	 0.2164828638	-2.4853749824	-0.132486
H	 1.8653970545	 1.0527783944	 0.9007498217	 0.098183
H	-0.3746563158	-0.4658199428	 0.9342177701	 0.098631
H	-0.6377831342	-1.585739026	-1.3749325083	 0.077168
H	 2.1003067519	-1.7149744377	-1.6281020951	 0.075374
H	 1.0075357003	-0.585668362	-4.2040974272	 0.101381
H	 0.8748616318	 2.0570335842	-2.9345640214	 0.102621
H	 2.9324328517	 0.8525117691	-1.4679044248	 0.075394
284.4058	309.2474	529.7897	539.2989	682.4883	687.047	754.4111	765.2247	816.5293	830.7511	857.5112	873.4847	880.1823	914.5367	931.1118	947.3984	953.6566	974.36	1003.7108	1008.0926	1036.7429	1040.4632	1097.7725	1126.669	1144.4774	1191.9657	1210.5319	1231.0434	1239.2772	1249.6258	1295.9209	1306.0645	1319.3027	1336.921	1410.0611	3113.2908	3118.5141	3133.4762	3146.464	3158.6001	3208.4179	3223.6372
O1C2C1C1C3C4C(C23)N14	O1[C@H]2[C@@H]1[C@@H]1[C@H]3[C@@H]4[C@H]([C@@H]23)N14	
InChI=1S/C7H7NO/c9-6-2-1-3-4(2)8(3)5(1)7(6)9/h1-7H	InChI=1S/C7H7NO/c9-6-2-1-3-4(2)8(3)5(1)7(6)9/h1-7H/t1-,2+,3-,4+,5+,6-,7+,8?/m1/s1
