19
gdb 101984	2.4616	1.02324	0.77049	0.71	87.25	-0.2096	-0.0654	0.1442	1499.2895	0.157331	-419.199906	-419.189856	-419.188911	-419.235972	35.215	
C	 0.1735052885	 1.2964118826	 0.1657940537	-0.307983
N	-0.0739004277	-0.1012797582	-0.0909053296	-0.311384
C	 0.4575960175	-0.7493611919	-1.1658329541	 0.259035
C	-0.0585134184	-2.1572438813	-1.2881147281	 0.113391
O	-0.8925858654	-2.6093881398	-0.5370242129	-0.271304
N	 1.295284268	-0.1641488788	-1.9461289442	-0.297584
C	 1.9173832109	-0.7803667039	-3.055602935	 0.054177
C	 2.1996980991	 0.1137297539	-4.2484152781	-0.268386
C	 3.3320611412	-0.3286961166	-3.3672381959	-0.269034
H	 1.2471592418	 1.4829760015	 0.2737621368	 0.138491
H	-0.1863844148	 1.9346277963	-0.6524131695	 0.126977
H	-0.3317106141	 1.5828900829	 1.0902911613	 0.121507
H	-0.8103536688	-0.5915052936	 0.3894847563	 0.259497
H	 0.3548940196	-2.7650056868	-2.1107549997	 0.105402
H	 1.7002582681	-1.8192409008	-3.2965726115	 0.080485
H	 2.1054628709	-0.3200907001	-5.2377750185	 0.111676
H	 1.8662442771	 1.1407835298	-4.1617113094	 0.121655
H	 3.7576861549	 0.4016603413	-2.6897893094	 0.121676
H	 4.0277503213	-1.0714590966	-3.7417153822	 0.111705
49.8614	73.6258	101.6302	138.614	159.9291	182.652	218.17	325.9549	364.0719	405.8533	458.0154	549.4203	570.5566	670.6809	768.0075	808.2439	812.4796	901.7668	915.1565	1007.5006	1010.0207	1052.8244	1068.0019	1105.3956	1119.1577	1160.244	1175.4906	1198.7103	1218.5935	1229.0918	1286.3699	1398.7179	1431.1492	1454.3716	1457.3464	1472.786	1489.8875	1513.0355	1546.9511	1696.2463	1787.9504	2985.5103	3013.3215	3071.3514	3109.3623	3129.8145	3137.8478	3142.34	3225.3785	3239.6657	3651.1022
CNC(C=O)=NC1CC1	CNC(=NC1CC1)C=O	
InChI=1S/C6H10N2O/c1-7-6(4-9)8-5-2-3-5/h4-5H,2-3H2,1H3,(H,7,8)	InChI=1S/C6H10N2O/c1-7-6(4-9)8-5-2-3-5/h4-5H,2-3H2,1H3,(H,7,8)
