17
gdb 97299	3.47531	1.092	0.83954	1.1248	82.75	-0.2317	-0.0183	0.2135	1351.8339	0.137211	-414.214843	-414.206441	-414.205497	-414.248199	30.467	
C	 0.0083844226	 1.4467793072	 0.0318929891	-0.312145
N	 0.0199027103	 0.0006182466	-0.0457568485	-0.22869
C	 0.5357322877	-0.6308050706	 0.9206336998	 0.106435
N	 0.5902212268	-2.0208768364	 0.930829466	-0.127474
C	 0.1135235569	-2.8838448798	-0.0626273208	 0.081769
N	 0.2693850903	-4.1295782227	 0.1561881646	-0.256392
C	 0.93798504	-4.2342967708	 1.4583126768	-0.273876
C	 1.1428738998	-2.8038504554	 1.9588470735	 0.352198
N	 1.6586355646	-2.3035618638	 3.003677369	-0.536312
H	 0.5421499412	 1.8639314395	-0.8296826309	 0.131909
H	-1.0242941628	 1.8085590934	-0.0306349434	 0.131906
H	 0.4635060052	 1.8455832113	 0.9517133626	 0.10633
H	 0.9799240742	-0.1941584116	 1.8209036881	 0.134768
H	-0.349113695	-2.4475501635	-0.9383932204	 0.167969
H	 0.3253890509	-4.8156180898	 2.1568358224	 0.146368
H	 1.8941513095	-4.7600151125	 1.3557906184	 0.146368
H	 2.0022351878	-3.033062851	 3.6259916536	 0.228871
100.2193	134.0674	144.2365	167.6095	210.257	349.1084	353.4644	373.8547	466.6497	542.147	598.3546	680.5648	813.0795	835.9475	909.2503	948.4896	977.0878	1001.7932	1008.4009	1017.4512	1041.5875	1142.1567	1155.212	1196.1994	1196.95	1286.588	1298.6282	1303.1084	1397.0775	1427.9692	1448.3675	1457.7156	1479.9853	1502.743	1687.7267	1745.7588	1756.841	2982.0245	3043.8187	3064.374	3076.2323	3079.2223	3085.3952	3240.0869	3500.7121
CN=CN1C=NCC1=N	CN=CN1C=NC[C]1[NH]	
InChI=1S/C5H8N4/c1-7-3-9-4-8-2-5(9)6/h3-4,6H,2H2,1H3	InChI=1S/C5H8N4/c1-7-3-9-4-8-2-5(9)6/h3-4,6H,2H2,1H3
