17
gdb 88802	2.84235	1.3765	1.06685	4.3112	68.3	-0.2723	0.0037	0.276	1136.1787	0.135219	-458.965546	-458.95719	-458.956246	-458.999177	30.309	
C	 0.0736482603	 1.5378438524	-0.2668012066	-0.45348
C	-0.1023950977	 0.0943972835	 0.1222876878	 0.079268
O	 1.0314372611	-0.7890584793	 0.0380538049	-0.252469
C	 0.4509816215	-0.5580771247	 1.3203860269	 0.036746
C	 1.320255678	 0.0693918686	 2.3833345967	-0.253397
C	 2.3609041195	-0.8608102276	 3.0481429548	-0.092932
O	 3.4404491336	 0.0301452083	 2.6286372244	-0.225336
C	 2.5768433481	 0.8762354239	 1.9932460655	 0.469875
O	 2.8459991758	 1.8787407093	 1.4142705965	-0.31562
H	 0.9743009758	 1.9774326714	 0.1619621541	 0.177398
H	 0.1292105427	 1.6204745109	-1.3573549054	 0.130813
H	-0.7981999886	 2.1143656651	 0.0627540672	 0.118174
H	-1.0136492216	-0.3655004192	-0.2676859651	 0.093312
H	-0.1115801599	-1.4112834172	 1.7112870439	 0.095289
H	 0.7058738903	 0.6141042033	 3.1072983369	 0.125847
H	 2.3272800302	-0.9423869136	 4.1359031466	 0.128004
H	 2.4728790709	-1.8434427252	 2.5853719109	 0.138508
53.1758	119.8534	170.3914	196.761	215.5551	254.0651	389.2175	483.2652	507.6799	516.2459	731.5919	742.8546	766.1651	806.8679	884.3356	935.2144	962.8539	976.1244	1027.5686	1066.8009	1086.2135	1118.6636	1135.4238	1163.7501	1171.0062	1190.3516	1216.4966	1293.6474	1330.501	1366.0752	1396.342	1428.2234	1468.9687	1502.4752	1514.1591	1516.7782	1930.0821	3038.1969	3057.3631	3071.3269	3075.7242	3081.6323	3096.5072	3138.5502	3159.3286
CC1OC1C1COC1=O	C[C@H]1O[C@H]1[C@H]1COC1=O	
InChI=1S/C6H8O3/c1-3-5(9-3)4-2-8-6(4)7/h3-5H,2H2,1H3	InChI=1S/C6H8O3/c1-3-5(9-3)4-2-8-6(4)7/h3-5H,2H2,1H3/t3-,4-,5-/m1/s1
