16
gdb 84338	2.68139	1.36018	1.08238	5.3442	74.77	-0.2656	-0.0444	0.2211	1135.9103	0.123846	-400.791663	-400.783275	-400.782331	-400.825483	30.512	
C	-0.2213545859	 1.586130773	-0.0191108746	-0.395217
C	 0.002337245	 0.0651120207	-0.0310416773	-0.154092
C	 0.7938426806	-0.4723888242	-1.1938514084	-0.072042
C	 1.8497783688	-1.2010710477	-0.835418965	-0.080389
C	 1.9781023171	-1.3265559054	 0.6679511425	-0.310691
C	 3.2822589441	-0.944460545	 1.2007356213	 0.287823
N	 4.3210987353	-0.6357676437	 1.6017514405	-0.317609
C	 0.8200298719	-0.4040605431	 1.1832546058	 0.397506
O	 0.6263010237	-0.1173734176	 2.328505558	-0.286878
H	 0.7285731869	 2.1214899974	-0.1065276576	 0.134112
H	-0.8627578891	 1.8879605005	-0.8518099237	 0.123951
H	-0.6993842833	 1.8836236967	 0.9173105243	 0.147372
H	-0.9805773643	-0.4258702583	 0.0329602505	 0.121983
H	 0.5106352467	-0.271661697	-2.2210350675	 0.116935
H	 2.5545749561	-1.6744162774	-1.5069375508	 0.128379
H	 1.7620314364	-2.3480224589	 1.0140368121	 0.158856
32.815	135.6977	164.68	216.847	242.7547	271.5909	411.5848	442.41	517.2394	571.0949	581.7281	642.4665	740.8521	744.6868	841.3482	893.8754	942.749	985.6678	1006.3323	1035.9184	1080.1923	1109.3659	1129.1445	1146.0973	1204.6564	1276.9126	1283.4845	1305.0335	1372.7922	1406.91	1494.2642	1500.0666	1681.4012	1867.3788	2359.6133	2997.3307	3009.3496	3045.917	3119.1274	3131.958	3194.8846	3224.0839
CC1C=CC(C#N)C1=O	C[C@H]1C=C[C@@H](C#N)C1=O	
InChI=1S/C7H7NO/c1-5-2-3-6(4-8)7(5)9/h2-3,5-6H,1H3	InChI=1S/C7H7NO/c1-5-2-3-6(4-8)7(5)9/h2-3,5-6H,1H3/t5-,6-/m0/s1
