14
gdb 123955	3.60909	1.7265	1.20597	1.886	62.72	-0.2225	0.0001	0.2225	943.2058	0.104827	-469.993797	-469.987284	-469.98634	-470.024708	25.023	
C	 0.0039620005	 1.3761226331	 0.0256851964	-0.108517
C	 1.4345406905	 1.9226569979	 0.0443583263	-0.108495
O	 2.1496142519	 1.5195290071	 1.2221535639	-0.261631
C	 1.9160773526	 0.211766959	 1.4630321184	 0.320834
N	 2.6150093374	-0.5613079731	 2.277137099	-0.307665
N	 1.9833700567	-1.7339921755	 2.1583999888	-0.102819
N	 0.9325218052	-1.7825941748	 1.3328141203	-0.307647
C	 0.8783881039	-0.5403964409	 0.8823232896	 0.320782
O	-0.023813983	-0.0590263547	 0.0007645737	-0.261631
H	-0.5426381356	 1.7349103309	 0.907541802	 0.128017
H	-0.5137070844	 1.7096508408	-0.8760213986	 0.132386
H	 1.9762052126	 1.5769966617	-0.8457483587	 0.128016
H	 1.4193696687	 3.0144483576	 0.0521517397	 0.132384
H	 2.287596743	-2.5457479689	 2.6662458493	 0.295986
132.202	246.4723	283.8181	354.8407	425.5331	459.6052	479.3928	561.1552	684.2265	712.8376	742.8571	751.1974	888.4611	935.795	971.6667	1074.5201	1087.9358	1118.4025	1184.3419	1209.3363	1248.1635	1276.6037	1294.7266	1389.7455	1396.9091	1426.3198	1464.544	1490.2828	1493.9501	1607.3407	1622.2061	3023.784	3034.6264	3119.6074	3120.1375	3700.1797
C1COC2=NNN=C2O1	C1COc2n[nH]nc2O1	
InChI=1S/C4H5N3O2/c1-2-9-4-3(8-1)5-7-6-4/h1-2H2,(H,5,6,7)	InChI=1S/C4H5N3O2/c1-2-9-4-3(8-1)5-7-6-4/h1-2H2,(H,5,6,7)
