19
gdb 64378	2.13218	1.86297	1.37158	1.8358	70.11	-0.2504	0.0725	0.3229	1017.2264	0.158314	-460.144577	-460.136054	-460.13511	-460.177341	33.088	
C	 0.2857627136	 1.6430508221	-0.216458979	-0.417752
C	 0.0132606183	 0.1556089768	-0.0016650202	 0.300645
O	-1.3752754223	-0.0319459294	 0.126045837	-0.485138
C	 0.672520888	-0.6974623938	-1.109701516	-0.129288
O	 2.0458388522	-0.7740699823	-0.7418628957	-0.261164
C	 2.1207430991	-0.8914094773	 0.6781046279	-0.145577
C	 0.7780476071	-0.411631191	 1.2081548888	 0.324915
C	 0.4413607804	-0.1030163316	 2.5940646557	-0.252262
O	 0.0136937095	-1.3415175552	 1.9974495905	-0.288751
H	 1.3452449006	 1.8166153275	-0.4239254468	 0.129238
H	-0.2984798865	 1.9980458957	-1.0704068478	 0.129536
H	-0.0066931007	 2.2243422481	 0.6621321077	 0.116307
H	-1.4900188473	-0.7891038268	 0.719505328	 0.289403
H	 0.1996927751	-1.6921215751	-1.1372710213	 0.093883
H	 0.6163507487	-0.2490680449	-2.1042437521	 0.112001
H	 2.2833521342	-1.9329767915	 0.9891816845	 0.115517
H	 2.963684154	-0.2850669629	 1.0254748595	 0.115348
H	 1.1913142374	-0.2065499164	 3.376575594	 0.124709
H	-0.3586610014	 0.6054713381	 2.8032851351	 0.12843
79.9899	187.0858	224.3038	233.1405	261.6853	332.5223	342.1543	385.5682	439.6709	489.4379	544.527	557.7633	616.0024	703.4792	811.3635	882.1054	910.1699	945.4365	957.2551	971.422	994.4079	1064.0494	1092.1707	1122.3718	1132.0026	1176.5879	1184.6961	1197.5876	1229.8908	1236.5663	1256.9852	1335.9566	1369.6472	1393.3985	1422.5921	1441.2479	1488.5704	1493.3999	1504.8548	1515.754	1527.241	2981.9517	3008.1892	3044.534	3069.8606	3087.5834	3104.5695	3118.5912	3126.492	3176.0231	3718.9551
CC1(O)COCC11CO1	C[C@@]1(O)COC[C@]21CO2	
InChI=1S/C6H10O3/c1-5(7)2-8-3-6(5)4-9-6/h7H,2-4H2,1H3	InChI=1S/C6H10O3/c1-5(7)2-8-3-6(5)4-9-6/h7H,2-4H2,1H3/t5-,6-/m1/s1
