14
gdb 125712	3.10585	1.48734	1.01202	2.6781	70.48	-0.2486	-0.0713	0.1773	1101.9121	0.100677	-470.000557	-469.992763	-469.991819	-470.033144	28.906	
C	-0.2570124205	 1.4706062938	 0.0273148397	-0.450626
C	 0.0262853758	-0.0002156251	-0.0149070268	 0.38968
N	 0.1509669287	-0.534775021	-1.1813182834	-0.140281
O	 0.4173722305	-1.9200230591	-1.2028405622	-0.281997
C	 0.5395710509	-2.6687742011	-0.0653338378	 0.352919
N	 0.7784067966	-3.9116982686	-0.0797812532	-0.501414
C	 0.3689754912	-1.9030136867	 1.1833077578	 0.383771
O	 0.4819672901	-2.6015739772	 2.3026791815	-0.357941
N	 0.126274503	-0.6417552246	 1.2125536579	-0.386673
H	 0.5313129957	 1.984670068	 0.5864523717	 0.145342
H	-0.3160347204	 1.8774056851	-0.9820887796	 0.151074
H	-1.199510073	 1.6522444428	 0.5536811312	 0.145344
H	 0.861336996	-4.2490669638	-1.0414252352	 0.238437
H	 0.3484695554	-1.9781945327	 3.0342966584	 0.312365
66.7385	164.7224	194.7665	297.8356	310.9671	333.2987	411.2138	485.0817	531.9796	565.4518	635.139	649.2121	679.7423	798.8218	800.3756	892.5935	916.0399	1002.9203	1063.6164	1064.5304	1075.7998	1207.4843	1292.4299	1358.1843	1414.4062	1468.929	1473.1449	1487.6501	1623.1339	1673.7114	1737.9199	3047.0338	3105.8808	3160.3297	3468.8859	3732.181
CC1=NOC(=N)C(O)=N1	CC1=NOC(=C(O)[N]1)[NH]	
InChI=1S/C4H5N3O2/c1-2-6-4(8)3(5)9-7-2/h5H,1H3,(H,6,7,8)	InChI=1S/C4H5N3O2/c1-2-6-4(8)3(5)9-7-2/h5H,1H3,(H,6,7,8)
