19
gdb 111698	2.49458	1.38096	1.21233	3.0768	70.49	-0.245	0.0621	0.3071	1111.9502	0.159704	-460.131028	-460.122335	-460.121391	-460.164989	32.589	
O	-0.0551586501	 1.4281126601	-0.3902888423	-0.42137
C	 0.0803406027	 0.1100458564	 0.1261618854	-0.097105
C	-1.26746105	-0.5798984903	 0.1831567835	-0.068367
C	-1.8589267794	-1.2278125511	-1.0377009689	 0.067358
O	-0.9528107152	-1.4925043106	-2.0810472122	-0.265191
C	-0.3363253487	-2.7614536157	-1.8443176683	-0.084056
C	-0.4070783238	-3.0408338633	-0.3301042169	 0.079365
O	 0.8835978719	-2.8338713842	 0.2334453481	-0.423533
C	-1.506828273	-2.0903527797	 0.144982396	-0.161416
H	-0.3088440021	 1.3363684813	-1.314990123	 0.287354
H	 0.7995022297	-0.4781232063	-0.4487925253	 0.117119
H	 0.4862578665	 0.2266451005	 1.1365615495	 0.099848
H	-1.9864115971	-0.0498044666	 0.8042592712	 0.094556
H	-2.8770130525	-1.0338762652	-1.3624847585	 0.096708
H	-0.8711112885	-3.5415908244	-2.4039982909	 0.097855
H	 0.6996253652	-2.7195944685	-2.1902779615	 0.125183
H	-0.7229160757	-4.0783896873	-0.1506761608	 0.078046
H	 0.7966576548	-2.8558789239	 1.1918482617	 0.285522
H	-2.2759040249	-2.4911953812	 0.7952470431	 0.092125
45.9476	98.1826	149.0665	206.693	278.3567	306.2202	361.6265	395.1003	406.4422	566.731	591.3569	714.0155	753.3107	775.7852	817.3627	861.4095	913.4071	945.5304	990.6541	996.4519	1041.8179	1051.5736	1062.2272	1073.6471	1107.3333	1135.4587	1148.8552	1197.81	1229.8175	1240.7393	1251.3952	1313.1026	1332.0699	1341.61	1377.1152	1398.6856	1414.5532	1418.9905	1438.2819	1499.5932	1506.6918	2991.3347	3012.3903	3053.4653	3101.8039	3102.8045	3133.8743	3148.0098	3172.8537	3810.5299	3819.8523
OCC1C2OCC(O)C12	OC[C@H]1[C@H]2OC[C@@H](O)[C@@H]12	
InChI=1S/C6H10O3/c7-1-3-5-4(8)2-9-6(3)5/h3-8H,1-2H2	InChI=1S/C6H10O3/c7-1-3-5-4(8)2-9-6(3)5/h3-8H,1-2H2/t3-,4-,5-,6-/m1/s1
