14
gdb 24867	2.02366	1.99433	1.00445	1.0891	68.65	-0.2485	0.0011	0.2495	1083.9201	0.104704	-466.273887	-466.266355	-466.265411	-466.306228	28.586	
N	-0.0882607681	 1.3028159971	-0.311732386	-0.559943
C	 0.0086629241	 0.0823111519	 0.0318188081	 0.468383
N	-1.1140339616	-0.6049836404	 0.4503865978	-0.343302
C	-1.1871706105	-1.9234348927	 0.8557978947	 0.468383
N	-2.3041101144	-2.4137810979	 1.2150476679	-0.559943
N	 0.0458601378	-2.576404959	 0.8133682523	-0.422198
C	 1.2564367092	-2.0301411521	 0.421482772	 0.478243
O	 2.2924210443	-2.6523644266	 0.4103687542	-0.382143
N	 1.1637724909	-0.7013533699	 0.0430507067	-0.422198
H	 0.805668179	 1.692808435	-0.5986031888	 0.219158
H	-1.9781340984	-0.0852419497	 0.4614899618	 0.287961
H	-2.2244089891	-3.3894760977	 1.4892098163	 0.219158
H	 0.0886170171	-3.5433095364	 1.0942488237	 0.274221
H	 2.0332666809	-0.2815888894	-0.2457470916	 0.274221
111.2718	126.2756	133.9992	371.4137	381.1802	501.9693	514.1712	517.129	531.1966	605.5283	621.6112	670.4153	706.2605	708.0369	754.2525	772.8274	778.9262	985.1757	1017.7415	1029.8932	1127.506	1141.037	1302.9611	1386.4536	1401.2662	1419.0083	1477.3992	1484.1803	1757.4202	1767.9472	1841.8522	3528.8968	3529.5631	3649.2516	3651.9642	3653.9206
N=C1NC(=N)NC(=O)N1	[NH][C]1N[C]([NH])NC(=O)N1	
InChI=1S/C3H5N5O/c4-1-6-2(5)8-3(9)7-1/h(H5,4,5,6,7,8,9)	InChI=1S/C3H5N5O/c4-1-6-2(5)8-3(9)7-1/h(H5,4,5,6,7,8,9)
