21
gdb 70994	2.98945	1.53981	1.38353	2.0493	82.74	-0.2335	0.0604	0.2938	1043.8423	0.183825	-386.989383	-386.981846	-386.980902	-387.020649	31.849	
C	-0.0164680548	 1.5854415813	 0.0727494722	-0.487494
C	 0.0338225993	 0.0768998938	 0.0349991642	 0.269867
C	-1.3220775251	-0.8007766863	-0.1727400378	-0.354449
C	-0.2390095695	-1.8382080901	-0.607795214	 0.424878
C	 0.457826352	-2.1253840492	 0.7466414815	-0.264809
C	 0.6851323014	-0.6623744357	 1.2142782131	-0.237482
O	 0.1402997073	-2.7859054978	-1.6548033301	-0.362717
C	 1.3119287003	-1.9068405262	-1.8948850302	-0.186519
C	 0.503524425	-0.7242736159	-1.2595422635	-0.066887
H	 0.9936457459	 2.0043653329	 0.1466177563	 0.120704
H	-0.4878437428	 1.9958614565	-0.8256559228	 0.116619
H	-0.585914721	 1.9367684132	 0.9411012226	 0.118007
H	-1.9273976627	-0.9951353271	 0.7195066578	 0.092095
H	-1.9348855773	-0.4167101912	-0.9884724142	 0.110455
H	-0.1969047144	-2.6946717301	 1.4121809058	 0.099727
H	 1.384354663	-2.6899254554	 0.6316720731	 0.102017
H	 1.7448203122	-0.409391929	 1.3188035711	 0.097686
H	 0.1909523956	-0.4254300075	 2.1619516736	 0.095852
H	 2.1914168523	-2.2709125461	-1.3564337724	 0.110731
H	 1.52710226	-1.8203248901	-2.9624168736	 0.114403
H	-0.1015875668	-0.3377724401	-2.0848438027	 0.087317
211.9425	222.3956	245.0847	274.2305	345.3496	399.9399	444.5438	497.9331	540.8083	572.2409	628.885	658.7217	755.342	831.5063	843.6687	856.3975	912.8967	936.4559	964.0591	977.4421	982.4152	1018.5984	1029.7054	1053.3396	1075.3757	1107.7288	1134.0734	1148.8568	1176.3933	1191.1813	1223.1158	1231.4952	1243.8014	1267.5458	1276.3845	1319.3728	1331.1805	1412.7417	1425.6705	1486.436	1488.2083	1491.7247	1494.2324	1504.6829	1526.0127	3024.7286	3041.5781	3044.717	3049.8894	3053.0935	3066.6452	3082.9936	3088.1893	3100.7702	3114.9804	3122.2221	3139.9988
CC12CC3(CC1)OCC23	C[C@]12C[C@@]3(CC1)OC[C@H]23	
InChI=1S/C8H12O/c1-7-2-3-8(5-7)6(7)4-9-8/h6H,2-5H2,1H3	InChI=1S/C8H12O/c1-7-2-3-8(5-7)6(7)4-9-8/h6H,2-5H2,1H3/t6-,7-,8-/m1/s1
