17
gdb 24351	3.50512	1.54488	1.11099	2.2048	74.48	-0.1859	0.0281	0.214	1051.2334	0.140171	-418.018504	-418.011448	-418.010504	-418.049912	28.476	
C	-0.0187656208	 1.4630637737	 0.0370006639	-0.170262
C	 1.4318227665	 1.9835185011	-0.0080690531	-0.170255
N	 2.2468853881	 1.5079603878	 1.1142638338	-0.410901
C	 1.9907264848	 0.1610173321	 1.4371577731	 0.187954
C	 2.6846772155	-0.713712764	 2.2178004699	-0.099486
O	 2.0876029865	-1.9378190309	 2.1927558825	-0.152423
C	 0.9944837291	-1.846754345	 1.3850818811	-0.099472
C	 0.8812244209	-0.5815869151	 0.8924906755	 0.187931
N	-0.1022304193	-0.0005527376	 0.0682498702	-0.410891
H	-0.5103010003	 1.859029354	 0.9361539551	 0.106854
H	-0.5828661089	 1.825374513	-0.8274379157	 0.103232
H	 1.8998909538	 1.6497328287	-0.9442181549	 0.106848
H	 1.4465604156	 3.0773703771	-0.0098816863	 0.103232
H	 2.1849525259	 2.1223883066	 1.9157250428	 0.233121
H	 3.5669437197	-0.6255273765	 2.8286634387	 0.125698
H	 0.418809248	-2.7477128613	 1.257809892	 0.125702
H	-0.1212549252	-0.3997318338	-0.8612652486	 0.233118
90.151	227.1891	304.7118	344.9186	419.6764	459.5318	516.9912	583.1669	594.9088	618.7545	660.7694	706.7032	708.2598	741.5796	781.4083	872.7442	898.1775	969.6344	1042.9544	1051.3721	1070.5649	1137.2729	1187.8541	1225.2116	1248.5251	1259.9471	1280.0919	1329.7973	1379.8058	1388.9918	1411.0239	1452.7379	1459.7296	1485.385	1485.9973	1593.44	1670.5724	3008.8534	3019.8189	3087.7443	3088.0183	3277.3083	3282.4248	3551.4914	3551.6731
C1CNC2=COC=C2N1	C1CNc2cocc2N1	
InChI=1S/C6H8N2O/c1-2-8-6-4-9-3-5(6)7-1/h3-4,7-8H,1-2H2	InChI=1S/C6H8N2O/c1-2-8-6-4-9-3-5(6)7-1/h3-4,7-8H,1-2H2
