17
gdb 48791	2.88016	1.44534	1.14968	1.9021	74.49	-0.2437	-0.0319	0.2118	1082.2751	0.134169	-421.774112	-421.766174	-421.76523	-421.806543	30.451	
O	-0.2074924694	 0.1875281395	-0.7603230665	-0.280266
C	 0.033664301	 0.9996038719	 0.1048411521	 0.069017
C	 1.1833180308	 1.9100822274	 0.0890136094	 0.06714
C	 2.0973189188	 2.0577410995	-1.1233596586	-0.349353
C	 2.6790301303	 1.5073971152	 0.1190708126	 0.075775
O	 2.9985997467	 2.5108522035	 1.0725286401	-0.302586
C	 1.6126822676	 2.9011471494	 1.1454546864	 0.401878
C	 1.210946425	 4.3104624349	 1.4119507675	-0.332868
C	 0.9849843048	 3.223078414	 2.4588837677	-0.347877
H	-0.6142751529	 1.0872108204	 1.0046827533	 0.071869
H	 1.8750218912	 1.3336673524	-1.9003485739	 0.150861
H	 2.3775729619	 3.0542738113	-1.4499346159	 0.128581
H	 3.1212272159	 0.5256941667	 0.2405006141	 0.129757
H	 2.008398746	 5.021034145	 1.5988255024	 0.133175
H	 0.3513049599	 4.7144830462	 0.8879009017	 0.124688
H	-0.0303620426	 2.894486957	 2.653279464	 0.125617
H	 1.6387119552	 3.2171784958	 3.3240180037	 0.134592
113.3383	146.2894	179.1223	213.2326	287.1608	317.7906	455.9659	494.2343	510.7478	583.3641	729.9174	757.865	765.1189	844.3345	874.3527	910.9415	923.8057	954.4467	978.008	1003.6526	1039.8318	1050.4165	1060.7153	1070.8723	1074.9302	1099.6013	1158.785	1186.0321	1246.1966	1288.0177	1370.0796	1395.2626	1439.4468	1450.4364	1464.2184	1507.8408	1790.9369	2885.1595	3127.8151	3134.2475	3136.4239	3193.1111	3218.1727	3229.6596	3231.4367
O=CC12CC1OC21CC1	O=C[C@]12C[C@H]1OC12CC1	
InChI=1S/C7H8O2/c8-4-6-3-5(6)9-7(6)1-2-7/h4-5H,1-3H2	InChI=1S/C7H8O2/c8-4-6-3-5(6)9-7(6)1-2-7/h4-5H,1-3H2/t5-,6-/m1/s1
