20
gdb 106351	3.0806	1.34334	1.14884	3.2371	80.58	-0.2521	0.0343	0.2864	1152.473	0.172168	-403.155302	-403.147209	-403.146265	-403.187875	32.011	
C	-0.0791583423	 1.5449916018	 0.0569475605	-0.384354
C	 0.123273816	 0.0276857042	-0.0260728334	-0.293581
C	 0.6980759167	-0.5685145228	 1.2304337605	 0.44968
C	 0.0611473086	-0.5079052263	 2.6458199884	-0.274793
C	 1.1969448007	-1.548745218	 2.9359368792	-0.137423
C	 0.9331258039	-2.0798196077	 1.4845226211	-0.283603
C	 2.3954217407	-0.6778948875	 2.6565468602	 0.454408
N	 3.470849599	-0.5579093447	 3.3002679511	-0.579756
O	 2.0404779264	-0.021768879	 1.4967965451	-0.302263
H	 0.8674769196	 2.0506375855	 0.2635511841	 0.139197
H	-0.4787456603	 1.9350908483	-0.883293919	 0.115485
H	-0.7825021336	 1.8083207525	 0.8537763662	 0.118447
H	-0.830700137	-0.4729142391	-0.2304114079	 0.102856
H	 0.7917453183	-0.2177067085	-0.8602751541	 0.113155
H	 0.0909617921	 0.4473570247	 3.1737753856	 0.11502
H	-0.9356384925	-0.951200466	 2.686138049	 0.10787
H	 1.2334060142	-2.179922893	 3.8186256368	 0.097543
H	 0.0199241287	-2.6737120993	 1.4134511044	 0.10754
H	 1.7577755897	-2.555958607	 0.9495395211	 0.113799
H	 4.0874487609	 0.1179641719	 2.8447043514	 0.220774
90.9418	144.3722	186.5108	212.2897	298.397	371.0472	455.1462	495.23	505.4349	581.2836	662.6899	717.516	781.1892	804.8069	840.3181	873.3858	890.7328	908.3714	933.0826	940.0382	986.5295	1014.6927	1021.6572	1055.5867	1065.6928	1097.5429	1114.0265	1163.7986	1185.6231	1208.7991	1231.1988	1263.938	1287.9376	1321.3592	1340.7861	1396.9628	1410.8569	1475.0264	1475.9337	1497.7674	1509.0214	1511.289	1808.2398	3032.0017	3042.9227	3067.6558	3068.3035	3074.6549	3109.4691	3126.5289	3136.0381	3140.9162	3172.4815	3464.9242
CCC12CC(C1)C(=N)O2	CC[C@@]12C[C@@H](C1)[C]([NH])O2	
InChI=1S/C7H11NO/c1-2-7-3-5(4-7)6(8)9-7/h5,8H,2-4H2,1H3	InChI=1S/C7H11NO/c1-2-7-3-5(4-7)6(8)9-7/h5,8H,2-4H2,1H3/t5-,7+
