23
gdb 87993	2.54073	1.26351	1.18408	1.6663	85.75	-0.2498	0.0831	0.333	1241.6878	0.20334	-388.27978	-388.26982	-388.268876	-388.313959	38.132	
C	 0.0084421814	 1.6660943392	 0.1598059383	-0.419862
C	-0.2410763759	 0.187448815	 0.302237859	-0.023481
O	 0.7339468821	-0.6942488015	-0.285767016	-0.300198
C	 0.5939920987	-0.6931544398	 1.1268996188	 0.420257
C	 1.7038673337	-0.3309404274	 2.1144366413	-0.325479
C	 1.0733900386	-1.3511398357	 3.107765401	-0.265916
C	 0.1833196542	-1.9322017404	 1.9553865825	 0.236698
C	-1.3016849372	-2.0925695121	 2.2667547677	-0.455372
C	 0.7662020885	-3.2153972529	 1.3552038325	-0.425802
H	 1.0511020473	 1.9108725225	 0.3772002011	 0.127045
H	-0.2143096626	 1.9971510228	-0.8600085125	 0.128643
H	-0.6347372126	 2.2316260871	 0.8433513402	 0.118766
H	-1.2708352961	-0.1261818823	 0.1197715035	 0.085647
H	 2.6880912873	-0.6381504113	 1.750558487	 0.115318
H	 1.7644615786	 0.7101900949	 2.440718759	 0.102802
H	 1.7598892494	-2.0563425207	 3.5816028386	 0.098583
H	 0.4795998048	-0.86430909	 3.8857540983	 0.098179
H	-1.7273194229	-1.1699835538	 2.6749944956	 0.107783
H	-1.8704934694	-2.3589226244	 1.36841424	 0.117296
H	-1.4602346079	-2.8891607099	 3.0028984767	 0.112917
H	 0.6186187966	-4.0604692086	 2.036752379	 0.107423
H	 0.2822416142	-3.4512946845	 0.4024749971	 0.12394
H	 1.8394917492	-3.1199312661	 1.1625484714	 0.114812
80.9698	137.8754	179.8668	190.1136	217.9185	239.3013	265.4178	281.8022	340.9343	356.5216	443.2389	478.5145	515.5604	565.5046	664.3811	748.5362	799.7872	863.323	879.6671	931.3587	948.2983	965.6325	968.114	994.2726	1017.824	1028.8918	1097.7276	1127.8693	1140.6009	1185.2416	1193.1432	1216.7528	1236.3609	1250.9988	1272.2398	1305.4551	1350.9767	1398.8203	1407.0659	1417.2027	1467.2008	1474.6132	1482.6426	1486.4668	1488.9683	1494.2628	1501.4106	1506.0793	1520.7784	3020.5292	3030.3452	3034.8934	3058.5821	3063.9994	3084.4798	3089.4496	3093.9085	3097.552	3098.7686	3103.6756	3106.8029	3120.8497	3125.5234
CC1OC11CCC1(C)C	C[C@H]1O[C@]21CCC2(C)C	
InChI=1S/C8H14O/c1-6-8(9-6)5-4-7(8,2)3/h6H,4-5H2,1-3H3	InChI=1S/C8H14O/c1-6-8(9-6)5-4-7(8,2)3/h6H,4-5H2,1-3H3/t6-,8+/m1/s1
