18
gdb 113693	3.74121	0.81793	0.74927	3.6238	70.42	-0.2622	-0.0388	0.2234	1519.4876	0.146056	-476.19546	-476.185832	-476.184888	-476.231103	34.175	
O	-0.2165113076	 1.5290706298	-0.9095093695	-0.41954
C	 0.0551877223	 0.4354493813	-0.0461371467	-0.086429
C	-1.2175453255	-0.3340358437	 0.2291902683	-0.024507
N	-1.6678622129	-1.2108856016	-0.8465408917	-0.319162
C	-1.2803899604	-1.8243326342	 0.439442502	-0.158528
C	-0.0705550694	-2.7013117714	 0.4575733781	 0.382703
O	 0.8585028155	-2.6070627793	-0.3175957864	-0.330812
C	-0.0259645546	-3.769145506	 1.5426060933	-0.133185
O	 1.1674161069	-4.485716519	 1.501830385	-0.419752
H	-0.4723470071	 1.1497567369	-1.7577619153	 0.291806
H	 0.8133245514	-0.2355567372	-0.4621741331	 0.13238
H	 0.4410646911	 0.8658822887	 0.8838340894	 0.109821
H	-1.9773249027	 0.2353421385	 0.7635568455	 0.103202
H	-2.6814127132	-1.2072535668	-0.9257133169	 0.244622
H	-2.0782336041	-2.1654497235	 1.0968575027	 0.09695
H	-0.1681596102	-3.2771840279	 2.5202608604	 0.118208
H	-0.9019472303	-4.4278142254	 1.4034916971	 0.116523
H	 1.6511609009	-4.1232966593	 0.7413149678	 0.2957
40.0627	71.004	113.4919	134.818	206.5399	241.3775	323.4101	364.7066	381.5245	409.2429	443.2487	504.3735	590.7683	696.2636	823.4129	835.6229	893.132	928.9524	972.935	1001.1855	1030.7118	1063.2167	1074.1938	1121.6058	1155.8643	1178.8285	1202.6741	1242.5902	1249.2925	1273.4182	1309.0964	1372.6527	1408.2135	1436.7427	1449.6422	1474.2979	1491.3009	1502.2734	1793.4903	2955.6163	2974.6354	3048.8597	3096.1251	3117.7099	3127.9999	3506.7715	3673.3893	3804.021
OCC1NC1C(=O)CO	OC[C@H]1N[C@H]1C(=O)CO	
InChI=1S/C5H9NO3/c7-1-3-5(6-3)4(9)2-8/h3,5-8H,1-2H2	InChI=1S/C5H9NO3/c7-1-3-5(6-3)4(9)2-8/h3,5-8H,1-2H2/t3-,5-/m1/s1
