16
gdb 127878	4.69112	1.11723	0.93398	4.6898	81.85	-0.2295	-0.0656	0.164	1247.83	0.123642	-430.209219	-430.200474	-430.19953	-430.243636	30.408	
C	-0.186566827	 1.4078731087	 0.1674727198	-0.329549
N	-0.1378909821	-0.0404737755	 0.1518717355	-0.268347
C	 0.6817434222	-0.6720140785	 0.8833011332	 0.403471
N	 0.7423204079	-2.0717803284	 0.8338709392	-0.281788
C	 1.2534385803	-2.6318346684	 1.863955794	 0.10292
N	 1.7730021209	-1.9346517663	 2.9251499672	-0.029034
C	 2.3746525083	-2.5731011166	 4.0836505342	-0.331452
N	 2.1107787764	-0.6055115151	 2.7318172687	-0.056628
N	 1.6249187866	-0.0076482291	 1.7493163353	-0.205368
H	 0.5757793274	 1.8926630823	 0.7854411077	 0.132152
H	-0.0938520282	 1.767346815	-0.8639933813	 0.128701
H	-1.178633832	 1.7218003269	 0.5148765104	 0.126263
H	 1.3403419162	-3.7167543352	 1.9236920692	 0.140104
H	 3.0355448406	-3.3928134116	 3.7837629532	 0.146735
H	 2.9588903908	-1.8149085527	 4.6053075191	 0.170317
H	 1.6030070118	-2.9607051854	 4.7551142146	 0.151502
50.7801	69.7756	105.4867	193.3466	230.6644	237.4182	356.2233	433.9745	462.4855	511.9727	571.2856	675.5085	740.9113	762.8309	806.631	914.3988	950.3969	1037.3822	1083.2016	1122.0205	1129.7682	1153.9581	1193.5834	1255.7519	1320.9177	1422.6273	1432.3846	1456.5873	1486.6775	1489.3794	1494.609	1506.6131	1561.9069	1693.8474	1737.6282	3017.0326	3040.563	3069.5279	3096.9366	3104.7912	3131.7209	3159.0241
CN=C1N=CN(C)N=N1	CN=c1ncn(C)nn1	
InChI=1S/C4H7N5/c1-5-4-6-3-9(2)8-7-4/h3H,1-2H3	InChI=1S/C4H7N5/c1-5-4-6-3-9(2)8-7-4/h3H,1-2H3
