20
gdb 122275	2.45941	1.0782	0.8892	2.4899	76.89	-0.2433	-0.0213	0.222	1389.705	0.169094	-440.258311	-440.248405	-440.247461	-440.294092	35.04	
C	-0.2208557909	 0.8985348867	 1.0441860655	-0.23122
O	-0.4362600116	-0.416930601	 0.5860028567	-0.235569
C	-1.0652215031	-0.4676864353	-0.6842216125	-0.055013
C	-1.3256724592	-1.9308290591	-1.0317997881	-0.324746
C	-2.4187631386	-2.5666227933	-0.1933126391	 0.221939
C	-2.1567400061	-3.8558318979	 0.5321699833	-0.27815
N	-2.3101560065	-2.6247281006	 1.2876252781	-0.342835
C	-3.8236064799	-2.3273663117	-0.6376961227	 0.148497
O	-4.1327299341	-1.7929757927	-1.6745865622	-0.27444
H	 0.2747169959	 0.830906528	 2.0154688975	 0.129054
H	 0.4233102015	 1.4655231224	 0.3544973777	 0.108637
H	-1.1669283286	 1.4482113684	 1.1629081704	 0.113017
H	-2.0079877272	 0.1012591351	-0.6709783534	 0.107805
H	-0.4139331084	-0.0068000831	-1.4444164607	 0.091356
H	-1.6235272341	-1.9916444976	-2.082992336	 0.129435
H	-0.3869887502	-2.4822151112	-0.9162118038	 0.10662
H	-2.9551588597	-4.5821340984	 0.6638542248	 0.123147
H	-1.1687911719	-4.2874207337	 0.391307547	 0.123918
H	-1.4119203846	-2.2206894214	 1.5427078221	 0.254282
H	-4.582956143	-2.6884832438	 0.0904046152	 0.084265
38.8836	83.1724	123.2837	130.2041	193.0848	232.42	275.2454	292.9113	339.6579	364.823	405.0464	541.4666	565.135	744.0785	796.9672	849.5661	899.5266	942.4832	979.6849	1007.3825	1029.2185	1052.8483	1070.9671	1117.5475	1147.4504	1156.3357	1184.7202	1205.0719	1244.9823	1258.6678	1280.6588	1323.1535	1363.379	1401.3493	1417.1407	1426.77	1458.1578	1482.4281	1486.7508	1504.0762	1508.0905	1530.0113	1816.5309	2898.0291	2968.3585	2980.9551	3005.5229	3026.2489	3052.9159	3100.6447	3102.8388	3117.6402	3186.3093	3512.6811
COCCC1(CN1)C=O	COCC[C@]1(CN1)C=O	
InChI=1S/C6H11NO2/c1-9-3-2-6(5-8)4-7-6/h5,7H,2-4H2,1H3	InChI=1S/C6H11NO2/c1-9-3-2-6(5-8)4-7-6/h5,7H,2-4H2,1H3/t6-/m0/s1
