19
gdb 65155	4.13856	0.93586	0.93295	4.3188	76.29	-0.2332	-0.01	0.2232	1322.6065	0.156642	-423.015626	-423.006436	-423.005492	-423.050351	34.186	
O	-0.2003954629	 1.3362953714	 0.2618005756	-0.474495
C	 0.0122974184	-0.0410240384	 0.0669816477	 0.423361
C	 1.1149472149	-0.5035868775	-0.8474556615	-0.333067
C	 1.2301992821	-0.6988179111	 0.6586061777	-0.333066
C	-1.3103689321	-0.7602419177	 0.0749669962	-0.023751
C	-2.2519739989	-0.5053451746	 1.2981991934	-0.359765
C	-3.3929175658	-0.2713436982	 0.2977078288	 0.39809
O	-4.5852123157	-0.234323923	 0.393746237	-0.293957
C	-2.4193113227	-0.2218846476	-0.8885200307	-0.359765
H	 0.6466187519	 1.7911323419	 0.2559190285	 0.284956
H	 0.9505555965	-1.3743662467	-1.4734418726	 0.119285
H	 1.7415568016	 0.2560564046	-1.3050208508	 0.110079
H	 1.932847899	-0.0679815964	 1.1946971848	 0.110079
H	 1.1444820638	-1.7028673862	 1.0606972718	 0.119285
H	-1.1388157243	-1.828345794	-0.0766172211	 0.077514
H	-2.3949113388	-1.3076306238	 2.0258189385	 0.121257
H	-1.9922056914	 0.4182700217	 1.8245364235	 0.146351
H	-2.2233700368	 0.8098508046	-1.1962609591	 0.14635
H	-2.6850698388	-0.8161174288	-1.7658930075	 0.121257
56.8281	61.0266	96.3391	179.7239	245.525	294.2833	342.1545	417.4525	463.7916	464.7846	541.2074	634.1946	668.9093	718.9668	762.8913	832.8865	874.8168	917.8624	928.5828	952.7026	978.4674	1011.9121	1014.177	1050.8986	1055.1622	1065.972	1111.5125	1169.6622	1183.6266	1193.3714	1194.5609	1238.3716	1252.7195	1284.4204	1356.0568	1423.6713	1442.5451	1452.9094	1462.6717	1503.8634	1894.0605	3061.872	3066.7692	3081.2737	3122.1333	3123.5772	3124.5597	3126.6163	3201.4574	3216.1842	3837.6986
OC1(CC1)C1CC(=O)C1	OC1(CC1)C1CC(=O)C1	
InChI=1S/C7H10O2/c8-6-3-5(4-6)7(9)1-2-7/h5,9H,1-4H2	InChI=1S/C7H10O2/c8-6-3-5(4-6)7(9)1-2-7/h5,9H,1-4H2
