17
gdb 124706	3.83035	1.01704	0.89447	4.9458	69.22	-0.2816	-0.015	0.2666	1286.0834	0.136281	-451.302446	-451.293727	-451.292783	-451.337288	30.823	
C	 0.0541050599	 1.5900132872	 0.0209846045	-0.412845
C	-0.0115648225	 0.0677688399	 0.0892798907	 0.017454
C	 0.7304815799	-0.4965063545	 1.32027308	-0.076154
O	 2.0990954114	-0.145907892	 1.3050014479	-0.403194
N	-1.3910337371	-0.4235894219	 0.0901266964	 0.023607
C	-2.5434184128	 0.1091952917	 0.5366187916	 0.061666
N	-3.5160980825	-0.7623416978	 0.3722502236	-0.227674
N	-2.9339451715	-1.8550885621	-0.1848569618	-0.094847
N	-1.6674637632	-1.6697497912	-0.3569035346	-0.12955
H	 1.1040565953	 1.8879661055	 0.0137627203	 0.152826
H	-0.4322161892	 1.9735818224	-0.8794910436	 0.13603
H	-0.410929609	 2.0523077442	 0.8979700377	 0.128379
H	 0.4427848589	-0.3617433222	-0.8096354269	 0.116896
H	 0.3044887782	-0.0592719549	 2.230665095	 0.121457
H	 0.5771879335	-1.5822364772	 1.364966205	 0.126434
H	 2.5549375397	-0.7308243715	 0.6913744089	 0.295102
H	-2.6408443289	 1.0979941342	 0.9506590854	 0.164413
23.1466	105.833	112.7723	234.7853	244.9524	275.5713	304.7407	377.8947	397.4392	478.7014	682.8388	727.9185	743.2307	865.1337	885.5063	917.1389	990.1488	1026.4022	1065.494	1073.0037	1106.6731	1116.4857	1135.7101	1173.7995	1216.1985	1241.6229	1312.0372	1344.5504	1366.7966	1395.8144	1401.7625	1415.1547	1460.4975	1488.9648	1500.3957	1505.2832	1509.98	3024.1397	3046.3846	3059.3704	3082.7455	3118.4004	3145.3003	3298.5042	3821.4314
CC(CO)N1C=NN=N1	C[C@@H](CO)n1cnnn1	
InChI=1S/C4H8N4O/c1-4(2-9)8-3-5-6-7-8/h3-4,9H,2H2,1H3	InChI=1S/C4H8N4O/c1-4(2-9)8-3-5-6-7-8/h3-4,9H,2H2,1H3/t4-/m0/s1
