20
gdb 89571	4.59018	1.01494	0.96789	1.4694	80.05	-0.2417	0.023	0.2647	1290.6931	0.172078	-403.159893	-403.151617	-403.150673	-403.193372	31.553	
C	-0.9307019336	 1.0631347304	-0.2419718854	-0.407399
C	 0.1296328112	-0.0013299692	-0.0090319856	 0.055598
C	 1.4786331805	 0.1064166233	-0.7745749436	-0.289147
C	 2.2286760618	-0.3228240593	 0.5185600158	 0.319537
C	 0.9410100066	 0.028579234	 1.3169547408	-0.289167
C	 2.6923911915	-1.8037355298	 0.5827021697	-0.167518
O	 4.0921351301	-1.7293399141	 0.9451607626	-0.221026
C	 4.3538045502	-0.4066632294	 1.0613017874	 0.102666
N	 3.4352823954	 0.4419091649	 0.8571963748	-0.301692
H	-0.5142375447	 2.0664675485	-0.097593808	 0.115905
H	-1.3310786067	 1.0111427255	-1.2607511571	 0.114164
H	-1.771219054	 0.9474308403	 0.4516129556	 0.114165
H	-0.3065950405	-0.9961268046	-0.1581847825	 0.067566
H	 1.6213246422	-0.5136411749	-1.6647864262	 0.09208
H	 1.7237067826	 1.1434521243	-1.0204528431	 0.113421
H	 1.0187465781	 1.0413860559	 1.7220946861	 0.11342
H	 0.648421052	-0.654500009	 2.1201390697	 0.092081
H	 2.1757028789	-2.3892734174	 1.3490831447	 0.118065
H	 2.6191258237	-2.3252102672	-0.3763877173	 0.118062
H	 5.3783169044	-0.1772036024	 1.3334589216	 0.139218
57.5992	65.275	228.0992	250.3541	290.8037	315.3139	396.6648	426.2821	453.2647	582.1333	682.4908	795.147	826.161	837.3134	896.3819	897.3637	922.2113	944.3398	961.1193	964.8679	968.7377	1048.5322	1071.9315	1116.4855	1120.7629	1164.0192	1182.3497	1206.0817	1222.6777	1236.834	1264.5129	1288.2977	1291.9464	1325.3242	1369.7326	1381.7049	1411.6903	1469.4429	1490.804	1496.2046	1497.7559	1515.7397	1697.2465	3023.1051	3029.0208	3043.9973	3046.9336	3053.1863	3089.8376	3090.9878	3092.889	3107.5214	3111.2218	3212.9365
CC1CC2(C1)COC=N2	C[C@H]1C[C@@]2(C1)COC=N2	
InChI=1S/C7H11NO/c1-6-2-7(3-6)4-9-5-8-7/h5-6H,2-4H2,1H3	InChI=1S/C7H11NO/c1-6-2-7(3-6)4-9-5-8-7/h5-6H,2-4H2,1H3/t6-,7+
