22
gdb 122232	2.65051	0.83098	0.71445	3.3235	78.62	-0.2463	0.0651	0.3114	1647.4729	0.193379	-441.446988	-441.436519	-441.435575	-441.483328	37.765	
O	 1.3791984448	-0.1983607074	-0.7588872689	-0.420598
C	 0.8175966211	-1.5006478576	-0.8067021667	-0.07178
C	-0.6421193252	-1.3986646496	-0.3851306186	-0.170657
C	-1.3307904507	-2.7709178997	-0.3420679577	-0.294741
C	-2.8013812867	-2.7295519526	 0.0417740783	 0.315618
C	-3.7544654444	-2.0236822604	-0.9141963613	-0.110103
O	-3.6830295	-0.6149703425	-0.7864252919	-0.413292
C	-3.3441972164	-3.8062088883	 0.909350612	-0.289944
N	-3.1619484943	-2.4443973289	 1.4493536369	-0.35878
H	 2.293784741	-0.2538508762	-1.0502946687	 0.284659
H	 0.8819393826	-1.9264066045	-1.8221139217	 0.082919
H	 1.3552248198	-2.1907627695	-0.1337587502	 0.077158
H	-0.6823204684	-0.9274563713	 0.6048112107	 0.098997
H	-1.1718952714	-0.7263598437	-1.0647235481	 0.137323
H	-1.241126889	-3.2573074802	-1.3235167285	 0.10163
H	-0.8001415451	-3.4214258668	 0.3670185731	 0.087016
H	-3.5006458596	-2.2576349714	-1.9536662713	 0.104071
H	-4.779158192	-2.3810103108	-0.7319638341	 0.088795
H	-3.8000447867	-0.4398454997	 0.1561853785	 0.291341
H	-4.3788843683	-4.1226801716	 0.8077962462	 0.118012
H	-2.6652671158	-4.5881470312	 1.2397035458	 0.110863
H	-2.3224741154	-2.4119695462	 2.0231830664	 0.231493
55.1029	86.8034	91.0826	115.8834	143.0184	240.0484	265.6294	279.3405	320.5336	351.9365	431.2465	460.1552	495.958	569.653	746.737	761.2862	860.7421	892.9882	914.2231	924.6555	976.8153	989.504	1023.5359	1047.6331	1072.3027	1073.7682	1095.3709	1111.7029	1146.4232	1201.757	1214.6353	1234.692	1265.5232	1294.7915	1305.5779	1316.9095	1345.7699	1368.5884	1386.7817	1415.6204	1437.1693	1466.7179	1477.1042	1499.3344	1501.6503	1515.0153	1528.5908	2948.8263	2974.4939	2987.711	3001.8229	3031.9101	3044.0705	3072.1473	3105.1324	3110.9147	3188.9891	3492.2775	3774.2124	3830.6202
OCCCC1(CO)CN1	OCCC[C@@]1(CO)CN1	
InChI=1S/C6H13NO2/c8-3-1-2-6(5-9)4-7-6/h7-9H,1-5H2	InChI=1S/C6H13NO2/c8-3-1-2-6(5-9)4-7-6/h7-9H,1-5H2/t6-/m0/s1
