23
gdb 73626	2.33327	1.72716	1.31846	0.1551	89.28	-0.2338	0.0327	0.2665	1099.0392	0.208674	-351.192512	-351.184416	-351.183472	-351.225007	33.226	
C	-0.2871825254	 1.4300804834	 0.189266763	-0.456206
C	 0.0541480695	-0.0462936956	-0.0496345335	 0.360115
C	-1.2343222164	-0.9047215588	-0.1398624884	-0.250959
C	-1.5122633279	-1.3545678498	 1.3014716271	-0.203514
C	-0.1134067921	-1.7158602808	 1.8286960012	-0.220575
C	 0.8363064028	-0.6739796985	 1.1701971272	-0.061793
C	 2.0811551544	-1.2482616334	 0.5486567788	-0.08235
C	 2.1557631062	-1.0264548478	-0.7623440315	-0.068102
C	 0.9949752397	-0.2179484164	-1.2815131996	-0.334114
H	 0.6199194459	 2.0176277674	 0.3696758726	 0.112298
H	-0.7978134532	 1.8618342645	-0.6792355226	 0.109192
H	-0.9421159124	 1.5586160751	 1.0582389515	 0.109641
H	-2.0681789127	-0.3602576717	-0.5952286584	 0.087212
H	-1.0466939395	-1.7889985198	-0.7615097609	 0.092779
H	-1.9355507877	-0.5265070402	 1.8831397145	 0.096375
H	-2.2215590279	-2.1854432388	 1.363452984	 0.090621
H	-0.051585571	-1.7134241665	 2.9207312792	 0.090145
H	 0.1563702556	-2.7238067577	 1.4921543221	 0.095489
H	 1.0903111672	 0.0997445175	 1.9067580791	 0.065504
H	 2.8166171146	-1.7953771375	 1.1304074075	 0.087038
H	 2.960206729	-1.3661783783	-1.4069480686	 0.08649
H	 0.4875581601	-0.7109644823	-2.1214804543	 0.097072
H	 1.3341894512	 0.7533206061	-1.6675193402	 0.097642
53.9765	211.4958	238.7023	276.2753	311.843	342.2929	401.0993	455.961	538.2996	570.7237	605.1309	717.148	766.5665	770.3246	854.9087	890.3027	895.4426	918.7827	933.8108	956.9138	976.1415	981.4891	995.5988	1006.0579	1037.3652	1056.6418	1105.6611	1134.8051	1146.9442	1163.3309	1199.4502	1214.068	1243.0325	1260.2698	1296.7097	1311.4357	1328.6351	1334.9979	1346.0836	1355.1887	1376.5406	1407.9912	1484.1917	1489.2981	1491.7049	1497.6915	1501.3803	1509.9352	1690.6067	3005.4672	3006.9065	3019.425	3024.9632	3030.677	3032.3951	3036.026	3074.4989	3081.2242	3087.5391	3089.6554	3092.595	3168.1566	3194.4448
CC12CCCC1C=CC2	C[C@]12CCC[C@H]1C=CC2	
InChI=1S/C9H14/c1-9-6-2-4-8(9)5-3-7-9/h2,4,8H,3,5-7H2,1H3	InChI=1S/C9H14/c1-9-6-2-4-8(9)5-3-7-9/h2,4,8H,3,5-7H2,1H3/t8-,9+/m1/s1
