20
gdb 18531	5.33449	1.02785	0.97056	1.4642	74.7	-0.2518	0.0813	0.3331	1249.0283	0.177539	-348.967284	-348.959044	-348.9581	-349.000289	30.959	
O	-0.0340332191	 1.4572232066	-0.0775912411	-0.421285
C	 0.011930288	 0.0439598137	 0.057884185	-0.070789
C	-1.4009323322	-0.4945030548	-0.1288299379	-0.191878
C	-1.4812265334	-2.0119949444	 0.005547775	 0.021559
C	-1.2886977904	-2.6856722119	 1.4138008091	-0.252008
C	-2.6414935412	-3.387906503	 1.2443617786	-0.036993
C	-3.7301005728	-2.3676518015	 1.0777600229	-0.273283
C	-2.8553953744	-2.6927950265	-0.102433401	-0.066696
H	 0.8542823592	 1.8006410757	 0.0545730554	 0.283634
H	 0.6831334283	-0.4059613217	-0.6928453388	 0.080495
H	 0.3950230882	-0.2474051351	 1.0497005669	 0.086172
H	-2.0552930078	-0.006327858	 0.6026593728	 0.103016
H	-1.7603047439	-0.1911821044	-1.1203039341	 0.10239
H	-0.788250883	-2.4741430394	-0.7066672479	 0.069253
H	-0.435667766	-3.3671138241	 1.4407026749	 0.099497
H	-1.2169468889	-2.0064890009	 2.2713210839	 0.091885
H	-2.8544358575	-4.4134370793	 1.5204180865	 0.082105
H	-4.738143034	-2.7660206935	 1.0195273337	 0.108352
H	-3.6655918737	-1.4054162156	 1.5802196735	 0.105322
H	-3.2748523554	-3.0944945118	-1.0177146876	 0.079252
85.5363	98.921	128.2308	219.4844	266.6536	334.3723	345.7071	436.0345	521.9481	676.82	777.7963	790.8291	802.4006	846.7821	906.5029	944.1307	962.1713	997.6435	1000.0506	1031.7342	1046.6524	1063.4683	1079.1602	1086.7545	1104.6361	1132.5665	1171.0623	1205.9124	1229.8466	1239.4574	1251.4656	1270.8835	1302.1953	1313.9045	1324.3461	1370.8995	1390.9751	1462.7605	1483.795	1489.4538	1502.0425	1527.6184	2956.3989	2981.7158	3030.0194	3034.3141	3034.9132	3075.2022	3102.8279	3110.6729	3169.9434	3181.9638	3199.5403	3829.3054
OCCC1CC2CC12	OCC[C@H]1C[C@H]2C[C@@H]12	
InChI=1S/C7H12O/c8-2-1-5-3-6-4-7(5)6/h5-8H,1-4H2	InChI=1S/C7H12O/c8-2-1-5-3-6-4-7(5)6/h5-8H,1-4H2/t5-,6-,7-/m0/s1
