18
gdb 78974	3.05574	1.99283	1.74614	0.2794	71.78	-0.233	0.0689	0.3019	845.653	0.151698	-401.912025	-401.905977	-401.905033	-401.942023	26.474	
O	 0.1504237539	 1.4048088314	 0.1597823871	-0.454307
C	 0.0533361892	 0.0051448133	 0.0418483466	 0.168147
C	-1.3727747534	-0.5229426313	-0.2325290167	-0.104132
C	-1.6758422697	 0.0181145872	-1.6407919255	-0.07096
C	-0.3721896001	-0.2651484321	-2.3163944481	-0.066769
C	 0.6826274655	-0.6209856546	-1.2348480515	-0.100186
C	 0.3754126705	-2.1153686269	-0.9904458965	-0.220971
C	-1.1400203918	-1.9090380335	-0.9479711448	 0.000962
N	-1.4566682048	-1.2998444999	-2.3043714456	-0.145422
H	-0.2389724244	 1.7902079779	-0.6344536327	 0.283023
H	 0.4991749056	-0.401490167	 0.9547650816	 0.084722
H	-2.1168833482	-0.4328183956	 0.5547390099	 0.075154
H	-2.4393795079	 0.7153848841	-1.9692633173	 0.092847
H	-0.1188949547	 0.1333598108	-3.2905387922	 0.096807
H	 1.7097353458	-0.3356233178	-1.4549458098	 0.069982
H	 0.6652396425	-2.7679042558	-1.8182835602	 0.111598
H	 0.8063440648	-2.4956525916	-0.0594206479	 0.100776
H	-1.7851085129	-2.7503733587	-0.7029346263	 0.07873
210.1034	313.0743	376.3474	424.6264	504.2518	567.2093	681.2066	716.4506	781.1678	790.7781	818.5168	845.4754	856.7968	870.7493	893.8869	907.9243	938.3555	956.0918	979.7141	998.6707	1028.5041	1054.5622	1060.2062	1099.0228	1135.7518	1156.3202	1167.792	1193.0237	1208.9419	1237.2719	1251.6017	1271.6841	1280.1514	1286.3377	1303.4362	1337.7345	1356.4366	1433.0767	1487.2958	3056.2536	3071.7433	3111.7656	3135.8001	3138.1481	3150.2632	3163.8668	3196.0617	3783.3897
OC1C2C3C4C1CC2N34	O[C@H]1[C@H]2[C@H]3[C@H]4[C@@H]1C[C@@H]2N34	
InChI=1S/C7H9NO/c9-7-2-1-3-4(7)6-5(2)8(3)6/h2-7,9H,1H2	InChI=1S/C7H9NO/c9-7-2-1-3-4(7)6-5(2)8(3)6/h2-7,9H,1H2/t2-,3-,4+,5+,6-,7+,8?/m0/s1
