27
gdb 121831	3.66165	0.64897	0.63778	0.9487	93.64	-0.2489	0.0726	0.3216	1969.5511	0.248745	-390.692018	-390.679764	-390.678819	-390.730231	43.987	
C	 0.2696400978	 1.4586886155	 0.007223094	-0.406678
C	-0.0587313623	-0.0386264779	 0.0020644947	-0.171381
C	-1.5599558686	-0.439446137	 0.0145535126	 0.255499
C	-2.2437971193	 0.1041523938	 1.2839744245	-0.410588
C	-2.2684273851	 0.1180275166	-1.235197511	-0.41059
C	-1.5873858372	-1.9893541798	 0.0062887918	-0.199518
C	-2.9547177498	-2.6662102093	 0.0161808891	-0.080337
O	-2.7365561991	-4.0638032467	 0.0059096397	-0.228469
C	-3.9313156585	-4.8035256733	 0.0137681635	-0.225663
H	 1.3546623566	 1.60410846	-0.0027094902	 0.11289
H	-0.1333212712	 1.9736557912	-0.8700258047	 0.116794
H	-0.1158056977	 1.9637074277	 0.8980227245	 0.116796
H	 0.4060483202	-0.4964976394	-0.8810356599	 0.090315
H	 0.4232354323	-0.5062782428	 0.8707085345	 0.090313
H	-2.1975958037	 1.1963737422	 1.3260911152	 0.111912
H	-3.3019877495	-0.1719447429	 1.3212499481	 0.110742
H	-1.7648467334	-0.2866147746	 2.1890579839	 0.108253
H	-1.8073231101	-0.2627358974	-2.1537123472	 0.108258
H	-3.3271866706	-0.1577051338	-1.2548155996	 0.11074
H	-2.2229035514	 1.2106491909	-1.2662042551	 0.111912
H	-1.0486668544	-2.3510446984	-0.8783828949	 0.098487
H	-1.031167255	-2.3606884799	 0.8760090012	 0.098477
H	-3.5357685262	-2.3852934503	 0.909987204	 0.083803
H	-3.5536772774	-2.3750565303	-0.8623972636	 0.083802
H	-3.6625514631	-5.8629763331	 0.0049393117	 0.124247
H	-4.5362260791	-4.5991104663	 0.9123456597	 0.099991
H	-4.5543043942	-4.5888410148	-0.8699394265	 0.099991
40.804	60.8199	79.0229	117.4388	129.6729	204.5149	236.3268	241.4428	261.4623	277.805	297.3749	326.1137	341.2097	375.9312	408.6663	486.1759	546.6098	732.3592	776.963	799.0053	867.5573	939.186	953.2136	988.8656	998.4394	1001.0827	1024.7964	1053.3347	1096.5465	1109.7726	1161.0736	1180.5191	1199.9379	1224.0327	1232.3577	1259.4394	1263.551	1309.3067	1337.2098	1355.0991	1366.2401	1398.4902	1408.9208	1422.7522	1427.8289	1474.6499	1481.1049	1484.168	1485.1015	1487.9797	1490.3888	1504.3732	1505.5545	1508.8992	1511.4861	1517.3553	1534.1065	2954.3102	2967.6095	2984.5068	3003.7231	3009.3723	3023.5711	3028.9542	3034.7476	3040.3843	3043.3172	3065.9304	3096.1178	3097.7226	3100.5644	3100.7966	3108.6152	3109.3236	3112.3769
CCC(C)(C)CCOC	CCC(C)(C)CCOC	
InChI=1S/C8H18O/c1-5-8(2,3)6-7-9-4/h5-7H2,1-4H3	InChI=1S/C8H18O/c1-5-8(2,3)6-7-9-4/h5-7H2,1-4H3
