14
gdb 49216	4.63321	1.0565	0.87237	1.3197	65.61	-0.255	-0.0761	0.1789	1222.342	0.099612	-473.848155	-473.840013	-473.839068	-473.882547	28.049	
O	-0.9638200963	 1.2963745195	 0.1901387631	-0.237302
C	 0.133093008	 0.8905971595	-0.0827546656	 0.124823
C	 1.3667312275	 1.7525692943	-0.1384846863	 0.302032
N	 2.4601956096	 1.1859243087	-0.4485786177	-0.292986
C	 3.6558000157	 1.9917242039	-0.6051672394	-0.276262
C	 3.5778636668	 3.4309485574	-0.1210700789	 0.336029
O	 4.5179237009	 4.1845012856	-0.1452183039	-0.288313
C	 2.2416710529	 3.8779340118	 0.4574083988	-0.186912
O	 1.1226397265	 3.048591601	 0.1342290106	-0.238717
H	 0.3588995948	-0.164609037	-0.3298541762	 0.112257
H	 4.4995222021	 1.5025706184	-0.1026775152	 0.160119
H	 3.9311384449	 2.0121963654	-1.6689686215	 0.165104
H	 2.348641503	 3.9165244687	 1.5506498663	 0.156248
H	 2.0117040535	 4.8865122027	 0.1076440459	 0.163882
31.0631	75.376	103.2459	194.6276	275.0055	398.3085	424.3416	456.0346	517.8489	607.7192	616.3973	737.0545	777.2622	810.9604	911.8705	1026.3569	1040.5275	1055.0813	1123.0428	1204.6237	1223.8423	1262.6343	1272.1463	1348.2918	1374.122	1385.7037	1429.7333	1467.2041	1729.2509	1830.9181	1835.3881	2960.1804	3020.9194	3023.69	3056.2505	3117.4857
O=CC1=NCC(=O)CO1	O=CC1=NCC(=O)CO1	
InChI=1S/C5H5NO3/c7-2-5-6-1-4(8)3-9-5/h2H,1,3H2	InChI=1S/C5H5NO3/c7-2-5-6-1-4(8)3-9-5/h2H,1,3H2
