19
gdb 53043	3.38842	0.933	0.83613	1.7083	88.44	-0.218	0.0253	0.2433	1478.6314	0.157286	-385.827515	-385.81797	-385.817026	-385.863186	34.213	
C	 0.0082138304	 1.4466189515	-0.0077255267	-0.508356
C	-0.0138482152	-0.0074593762	-0.0011435154	 0.21335
C	-0.0298859622	-1.2131320523	-0.0037579574	-0.08929
C	-0.0304108629	-2.6329814607	 0.0010114046	 0.25883
O	 0.7803903183	-3.3390688461	-0.9601909093	-0.323114
C	-0.2834306874	-4.3010792829	-1.1826007793	-0.101513
C	-1.1393873632	-3.6890869852	-0.0845650221	-0.208495
C	-0.3292596888	-3.5240391128	 1.1841688656	-0.071312
C	 0.65547954	-4.5360899014	 1.7235372135	-0.419883
H	 0.7756448747	 1.8184076129	-0.6956818654	 0.155757
H	-0.9532337708	 1.8609575843	-0.3315549703	 0.149356
H	 0.2300336521	 1.8511988038	 0.9860913983	 0.14905
H	-0.7085097533	-4.1749426173	-2.184513624	 0.113337
H	 0.0565350857	-5.3351453085	-1.0532481105	 0.103951
H	-2.2114404888	-3.5506444074	-0.1230904544	 0.105125
H	-0.9015881338	-2.9925986283	 1.9415650545	 0.096597
H	 1.3302514573	-4.8839235043	 0.9381790012	 0.138945
H	 1.2692674687	-4.0890080666	 2.5120541976	 0.122304
H	 0.1390210791	-5.4027842624	 2.1499769894	 0.115361
23.9006	87.301	98.3422	169.8741	234.065	259.9463	262.02	315.6354	409.332	434.8103	502.6927	535.1087	635.0215	751.1243	787.1967	851.8526	936.2327	964.7511	970.4013	977.4397	1021.6956	1034.633	1050.0805	1054.7634	1090.9836	1126.5868	1136.0734	1161.6654	1186.4475	1290.9452	1326.1917	1340.4957	1405.9387	1413.0066	1459.0766	1474.0144	1478.5594	1491.2018	1504.0467	1521.6685	2360.2181	3025.4765	3026.8916	3037.5953	3073.2852	3084.8944	3089.4063	3097.0033	3123.6716	3142.8351	3204.2455
CC#CC12OCC1C2C	CC#C[C@]12OC[C@H]1[C@H]2C	
InChI=1S/C8H10O/c1-3-4-8-6(2)7(8)5-9-8/h6-7H,5H2,1-2H3	InChI=1S/C8H10O/c1-3-4-8-6(2)7(8)5-9-8/h6-7H,5H2,1-2H3/t6-,7+,8-/m1/s1
