19
gdb 73225	2.20872	1.90953	1.35452	2.922	74.37	-0.2061	-0.0167	0.1895	1016.4188	0.160548	-419.199372	-419.191031	-419.190087	-419.232208	31.978	
C	-0.2197545511	 1.4795977633	 0.0832434318	-0.493254
C	 0.0643392291	-0.0043872459	 0.0233161041	 0.211636
N	-1.0762276217	-0.9420514258	 0.2632454474	-0.352897
C	-0.4567565726	-1.4574105184	 1.5087353914	-0.160531
C	 0.864051061	-0.7279753043	 1.1506616036	-0.065094
N	 1.903168544	-1.5684438344	 0.5364192648	-0.303614
C	 1.6056594857	-1.6852893453	-0.90198029	-0.290933
C	 0.7451944551	-0.4692776639	-1.2739176269	 0.40268
O	 0.6215706626	 0.0257714623	-2.3641182267	-0.325537
H	 0.7098367397	 2.0581881645	 0.0537370118	 0.12367
H	-0.8182618064	 1.7820111557	-0.7825945464	 0.141602
H	-0.7585433983	 1.7447135367	 0.9988951974	 0.111488
H	-1.9773855308	-0.4896935913	 0.3637102842	 0.220808
H	-0.9143918699	-1.0862913445	 2.4347489094	 0.095646
H	-0.391053844	-2.5491597256	 1.558379413	 0.109537
H	 1.2931883306	-0.1165331417	 1.9451157144	 0.078142
H	 2.8007167333	-1.1123787388	 0.6493863501	 0.224474
H	 2.5134215194	-1.7310995987	-1.5069431273	 0.12822
H	 1.0253076542	-2.5941903438	-1.1072844162	 0.143956
87.2106	120.1402	201.1265	210.8636	261.266	295.4027	387.3321	463.7945	502.9217	594.8765	610.509	677.1151	691.9657	761.5803	809.8191	846.6195	895.678	940.7375	976.2891	994.7198	1022.324	1062.1878	1077.0409	1111.8275	1132.7029	1169.3898	1186.1421	1211.5144	1230.9238	1245.8319	1299.2513	1322.0698	1368.9352	1392.606	1403.5239	1461.9883	1469.8416	1483.765	1489.1189	1509.0423	1848.6345	3013.3445	3028.2582	3028.739	3071.9035	3098.72	3103.22	3104.5405	3114.3464	3539.7908	3541.0057
CC12NCC1NCC2=O	C[C@]12NC[C@H]1NCC2=O	
InChI=1S/C6H10N2O/c1-6-4(2-8-6)7-3-5(6)9/h4,7-8H,2-3H2,1H3	InChI=1S/C6H10N2O/c1-6-4(2-8-6)7-3-5(6)9/h4,7-8H,2-3H2,1H3/t4-,6+/m1/s1
