19
gdb 97412	4.95419	0.88609	0.81906	1.8711	79.	-0.2381	0.0247	0.2629	1444.8366	0.159154	-419.154479	-419.145842	-419.144898	-419.18843	31.737	
C	-0.5382916645	 1.1361182153	-0.5777027354	-0.314479
N	-1.1311429885	-0.1728155899	-0.38904773	-0.233837
C	-0.8247773662	-0.8068582391	 0.6576909208	 0.125067
O	-1.3000984698	-2.0247758662	 0.9661199845	-0.238954
C	-2.238541591	-2.5807661665	 0.0413246012	 0.143831
C	-1.7232362519	-3.1741781015	-1.2899148319	-0.189887
N	-2.3123316928	-4.5249303104	-0.9635988588	-0.129046
C	-1.6102308904	-4.9599323234	 0.252073911	-0.231786
C	-2.6987986225	-3.9742675807	 0.4090715889	-0.072285
H	 0.027628421	 1.1532042368	-1.5160891267	 0.127993
H	-1.3284431304	 1.8900408485	-0.6688417753	 0.128309
H	 0.1365170744	 1.4413523482	 0.2378852011	 0.099644
H	-0.1410761121	-0.4604757101	 1.4418927272	 0.10244
H	-3.0496984681	-1.8674001159	-0.113337606	 0.107103
H	-2.1978010798	-2.7429814967	-2.1713515121	 0.123098
H	-0.6379135925	-3.1877035512	-1.425425851	 0.110845
H	-1.8346045466	-5.9850511756	 0.5298278851	 0.123539
H	-0.5774278598	-4.6571838617	 0.4089972646	 0.119796
H	-3.6459713686	-4.2177584699	 0.8778519328	 0.09861
52.6502	109.8958	143.4937	187.1508	216.1889	292.0108	357.288	388.4522	474.8579	520.1937	678.8915	738.0374	760.4433	797.2729	860.3635	954.585	985.7752	988.2298	1008.2867	1051.9014	1055.7884	1076.3234	1099.2201	1113.1349	1132.0953	1141.9441	1148.4021	1199.1466	1219.9136	1256.4794	1273.0083	1290.5439	1371.4687	1388.8875	1393.3558	1450.606	1482.3065	1485.3722	1504.7248	1505.4309	1747.798	2975.898	3058.2488	3061.1047	3063.7637	3078.4216	3099.2132	3108.5497	3138.68	3172.7868	3202.151
CN=COC1CN2CC12	CN=CO[C@H]1CN2C[C@@H]12	
InChI=1S/C6H10N2O/c1-7-4-9-6-3-8-2-5(6)8/h4-6H,2-3H2,1H3	InChI=1S/C6H10N2O/c1-7-4-9-6-3-8-2-5(6)8/h4-6H,2-3H2,1H3/t5-,6-,8?/m0/s1
