17
gdb 32651	2.08237	1.76063	1.02664	3.6089	84.38	-0.2158	-0.0097	0.2061	1154.0141	0.136532	-380.884769	-380.876187	-380.875242	-380.91833	31.698	
C	 0.0475003194	 1.538898769	 0.0556026471	-0.378806
C	 0.0208682792	 0.0115732925	-0.0272165209	-0.162844
N	 0.6926505264	-0.5056747829	-1.2126397973	-0.062387
C	 0.1104402593	-0.900446184	-2.3748486266	-0.00029
N	 0.9880920212	-1.2800130098	-3.2823366506	-0.264177
C	 2.2051864124	-1.1218138482	-2.6860411226	-0.183979
C	 2.0648477394	-0.6405666989	-1.3967004718	 0.144781
C	 3.0078325698	-0.3322473489	-0.3998882427	 0.276044
C	 3.8132672537	-0.0660815695	 0.4572543738	-0.474105
H	 1.0759785772	 1.9046371283	 0.1076866697	 0.146268
H	-0.4364066177	 1.9858656142	-0.8176006145	 0.130182
H	-0.4820829425	 1.8725924476	 0.9530726928	 0.123776
H	 0.5033980093	-0.4260029772	 0.8514198135	 0.138009
H	-1.0085639142	-0.357143991	-0.054327777	 0.124327
H	-0.9630313814	-0.8953789765	-2.4986468255	 0.129744
H	 3.1276734656	-1.3615437661	-3.1922263268	 0.119527
H	 4.5326766128	 0.1611982413	 1.2043620392	 0.193929
61.9919	129.1308	144.7937	168.7149	231.8704	338.0374	380.7686	470.478	518.3817	527.9017	602.841	665.6013	679.9926	686.4818	695.3631	794.5825	822.1019	861.9003	932.9734	970.8202	1097.0748	1116.8217	1157.5468	1199.6415	1251.6049	1284.1245	1306.1404	1387.2412	1392.9153	1410.2372	1413.1652	1477.5079	1491.5706	1502.1096	1509.4334	1563.6007	2223.5449	3046.1853	3060.0293	3100.616	3120.4601	3134.4304	3242.8275	3255.5781	3501.4151
CCN1C=NC=C1C#C	CCn1cncc1C#C	
InChI=1S/C7H8N2/c1-3-7-5-8-6-9(7)4-2/h1,5-6H,4H2,2H3	InChI=1S/C7H8N2/c1-3-7-5-8-6-9(7)4-2/h1,5-6H,4H2,2H3
