20
gdb 101285	2.50831	1.09656	0.93694	1.3072	82.14	-0.2364	0.0318	0.2681	1348.8903	0.167993	-403.076165	-403.065899	-403.064955	-403.111849	37.078	
C	 0.0363147954	 0.317406624	 2.6102682859	-0.232182
O	 0.584626558	 1.0059415986	 1.504782014	-0.251968
C	 0.746069181	 0.2209310521	 0.3312136102	 0.115395
C	 0.8767130336	 1.1921415599	-0.8375145171	-0.402969
C	 1.9669378291	-0.6730130439	 0.4408707473	-0.018606
N	 1.796918087	-1.9883461051	 1.0672591234	-0.329518
C	 2.1259517448	-1.9190482314	-0.3770350407	-0.25104
C	 1.1334365293	-2.3700709123	-1.3147128974	 0.379654
C	 0.3331440232	-2.7425145628	-2.1313547893	-0.444096
H	 0.6978958529	-0.4724754061	 2.9869476681	 0.116525
H	-0.119521084	 1.0591605914	 3.3982625881	 0.118683
H	-0.9309107264	-0.143289532	 2.3583840638	 0.106097
H	-0.1353470626	-0.4217704148	 0.1874803286	 0.082394
H	 1.7649077529	 1.8210133638	-0.7176740584	 0.117942
H	 0.9554537238	 0.6460589346	-1.7813350042	 0.127142
H	 0.0017660938	 1.8454575257	-0.8775067846	 0.123213
H	 2.8873404047	-0.1277624526	 0.6493509847	 0.092784
H	 2.6305668604	-2.2482225836	 1.5887047557	 0.237356
H	 3.1470658445	-2.1649364163	-0.661341055	 0.113316
H	-0.3822487215	-3.0769380193	-2.841311293	 0.199879
47.3862	86.6435	101.8786	176.0752	192.062	215.1103	239.0472	267.9262	349.6147	376.0602	417.6548	514.6595	561.7591	606.7763	626.346	660.0546	794.1933	838.6038	867.777	904.7075	951.2148	977.1991	1039.2236	1076.572	1121.4356	1143.6017	1148.4774	1183.5372	1198.5921	1228.5313	1234.8094	1253.4911	1326.935	1365.7269	1400.0191	1406.9724	1454.5803	1477.8914	1486.7095	1488.15	1500.49	1511.3569	2238.4674	2988.5199	2999.7623	3043.6148	3052.6766	3108.8866	3110.8816	3116.9445	3126.2633	3130.6491	3499.89	3503.942
COC(C)C1NC1C#C	CO[C@@H](C)[C@H]1N[C@H]1C#C	
InChI=1S/C7H11NO/c1-4-6-7(8-6)5(2)9-3/h1,5-8H,2-3H3	InChI=1S/C7H11NO/c1-4-6-7(8-6)5(2)9-3/h1,5-8H,2-3H3/t5-,6-,7+/m0/s1
