16
gdb 54555	3.0307	1.61085	1.21347	1.9574	69.16	-0.2388	-0.0309	0.2079	1007.3711	0.122533	-437.779575	-437.771821	-437.770877	-437.812284	29.1	
C	 0.7342601942	 0.195375239	-0.7332316935	-0.501223
C	-0.4015917889	 0.4923264999	 0.2226599374	 0.238026
O	-0.4151025926	 1.4367830443	 0.9788128911	-0.300366
C	-1.5354221434	-0.4871318027	 0.220365401	 0.252093
N	-2.8894349455	-0.2235808966	 0.7856423394	-0.372876
C	-2.971154834	-1.6640415314	 0.3841309337	-0.080402
C	-2.1173773102	-1.4203449302	-0.8940969325	 0.045148
O	-1.1958071883	-2.5237779299	-0.6474974323	-0.319164
C	-1.4768450072	-2.008289751	 0.6803503149	 0.034986
H	 1.6456779112	 0.6913847247	-0.3960775138	 0.143679
H	 0.8833781432	-0.8823741294	-0.8451727885	 0.153996
H	 0.470245415	 0.5868193595	-1.7237760479	 0.151075
H	-2.8373176382	-0.1216846154	 1.8008064558	 0.225377
H	-3.8606147986	-2.2817200165	 0.505232136	 0.102496
H	-2.4122958463	-1.1883715863	-1.9159479588	 0.115805
H	-0.9908135804	-2.464165228	 1.5442478081	 0.111349
65.2481	141.4877	153.0883	187.4144	352.3092	377.4077	472.1089	572.069	595.858	628.3225	741.4527	780.1822	802.6613	832.8528	880.6135	904.1032	921.2602	965.5744	1015.3592	1036.8676	1064.0394	1079.9695	1098.3568	1146.1531	1151.2459	1168.0905	1181.3992	1266.4684	1275.8292	1323.8522	1356.305	1388.2808	1468.3533	1471.7597	1802.7934	3035.4422	3103.1729	3112.397	3127.8564	3146.0951	3153.6562	3438.136
CC(=O)C12NC3C1OC23	CC(=O)[C@@]12N[C@H]3[C@@H]1O[C@@H]23	
InChI=1S/C6H7NO2/c1-2(8)6-4-3(7-6)5(6)9-4/h3-5,7H,1H3	InChI=1S/C6H7NO2/c1-2(8)6-4-3(7-6)5(6)9-4/h3-5,7H,1H3/t3-,4-,5+,6+
