18
gdb 28699	3.21977	1.06798	0.84765	0.9837	83.17	-0.1982	-0.0269	0.1712	1359.2208	0.14722	-402.00544	-401.996307	-401.995362	-402.040739	32.502	
C	 0.1677815745	 1.4130659284	 0.1830770455	-0.504364
C	 0.0218196079	-0.0564944123	-0.0358386904	 0.300529
C	-0.2528087734	-0.7800115658	-1.1766212279	-0.212902
C	-0.2775206222	-2.1588334246	-0.8264648208	-0.234396
C	-0.026628086	-2.2477442148	 0.5242109994	 0.281644
C	 0.0837840258	-3.4209685434	 1.4515306459	-0.381496
C	 1.4873144058	-3.4262726534	 2.0354740942	 0.150893
O	 1.7717994099	-2.9214753387	 3.0933818542	-0.253402
N	 0.1563559138	-0.9624701771	 0.9892562559	-0.326075
H	 1.1582952276	 1.6767539236	 0.5744128854	 0.129347
H	 0.0346035215	 1.9433967981	-0.7624803586	 0.138044
H	-0.5757489713	 1.8027467957	 0.8895804571	 0.128791
H	-0.4231321325	-0.3581722453	-2.1557314593	 0.090647
H	-0.4703302738	-2.9932534145	-1.4838932666	 0.091878
H	-0.6343679442	-3.3618798977	 2.2778374819	 0.124483
H	-0.0952311153	-4.3398050729	 0.8859563647	 0.124025
H	 2.2672344511	-3.8715032262	 1.3790699269	 0.087153
H	 0.4025478009	-0.7380525693	 1.9397380326	 0.265201
33.4899	67.4506	111.1313	133.028	222.335	252.3885	339.0675	385.0478	499.2947	518.0631	603.8214	642.5136	670.0356	700.7887	784.3753	824.9796	881.8068	978.3428	980.7372	1011.4268	1026.7508	1052.935	1063.057	1065.1909	1187.7806	1200.3151	1270.9881	1288.0507	1299.4604	1414.7035	1416.7439	1433.8278	1447.8206	1465.2609	1480.545	1503.1728	1535.9059	1633.6291	1816.074	2891.0398	3017.88	3033.9125	3062.4013	3104.2231	3123.8112	3238.2787	3253.3337	3654.8456
CC1=CC=C(CC=O)N1	Cc1ccc(CC=O)[nH]1	
InChI=1S/C7H9NO/c1-6-2-3-7(8-6)4-5-9/h2-3,5,8H,4H2,1H3	InChI=1S/C7H9NO/c1-6-2-3-7(8-6)4-5-9/h2-3,5,8H,4H2,1H3
