20
gdb 8912	3.46929	1.23181	0.97851	1.2873	77.18	-0.2632	0.0325	0.2958	1233.6964	0.173705	-348.974066	-348.96396	-348.963016	-349.008863	36.661	
C	 0.0821604725	 1.5652838622	 0.0796600119	-0.397109
C	-0.0109833686	 0.0388179553	-0.0077252759	-0.170669
C	-1.4499587104	-0.5060143016	-0.0571870383	 0.025173
C	-2.1736493914	-0.1373080053	-1.3584113513	-0.406528
C	-1.4374542047	-2.0443919444	 0.1531868884	-0.049687
O	-0.7339566975	-2.4254135768	 1.3352338235	-0.419406
C	-2.7886335975	-2.6149452687	 0.1583002119	 0.291101
C	-3.9004982104	-3.0686326634	 0.2246628516	-0.443188
H	 1.1254399901	 1.8849988721	 0.1648777526	 0.113943
H	-0.3394675106	 2.0585663166	-0.8016504502	 0.116556
H	-0.4520332483	 1.9439906093	 0.9586948379	 0.111969
H	 0.5309042666	-0.3128245734	-0.8971522944	 0.089236
H	 0.49383586	-0.4063163613	 0.854361042	 0.113856
H	-2.0117168958	-0.0791243219	 0.7875399097	 0.067332
H	-1.6477144303	-0.5525432611	-2.2269363359	 0.113174
H	-3.1965997355	-0.5213825707	-1.3692761795	 0.12932
H	-2.2209237169	 0.9469874977	-1.4882666651	 0.118093
H	-0.863536077	-2.4949080402	-0.6676334381	 0.114936
H	-1.3078265179	-2.2325433508	 2.0851316743	 0.283436
H	-4.8770544163	-3.4843025535	 0.2665898548	 0.198462
63.3558	73.9684	139.648	209.2136	216.709	226.6991	252.8715	285.7991	304.2187	377.1247	412.4411	449.1823	548.5226	594.2281	629.7187	666.9469	776.2432	845.0751	863.3074	966.1893	983.7341	989.4223	1048.1341	1061.0526	1128.246	1147.7889	1181.892	1249.4966	1272.665	1303.0279	1344.2338	1363.6736	1380.4589	1408.7479	1414.2347	1418.553	1488.4909	1496.549	1499.2462	1509.3924	1512.5742	2228.5235	2990.4797	3012.3668	3026.4764	3031.8548	3034.687	3081.026	3097.4777	3102.1584	3108.7242	3124.1836	3502.2112	3804.4573
CCC(C)C(O)C#C	CC[C@@H](C)[C@@H](O)C#C	
InChI=1S/C7H12O/c1-4-6(3)7(8)5-2/h2,6-8H,4H2,1,3H3	InChI=1S/C7H12O/c1-4-6(3)7(8)5-2/h2,6-8H,4H2,1,3H3/t6-,7+/m1/s1
