14
gdb 28377	3.3311	1.43003	1.00675	1.6948	69.48	-0.2359	-0.0573	0.1786	1102.9618	0.100982	-473.896749	-473.889044	-473.8881	-473.929046	28.557	
C	-0.0107047949	 1.4625396593	 0.0888851102	-0.470501
C	-0.0074661305	-0.0195832916	-0.0804753489	 0.407029
N	-0.1035614526	-0.6080124527	-1.2125350584	-0.296766
C	-0.0882077624	-1.9883433621	-1.2353927958	-0.104992
C	 0.0245015589	-2.7224522998	-0.1027450118	 0.199305
O	 0.045323222	-4.0667187852	-0.0572219186	-0.417913
C	 0.1332967868	-2.0429243871	 1.1786445802	 0.365674
O	 0.2375077758	-2.611938322	 2.2395711239	-0.37421
O	 0.1106047496	-0.6704139544	 1.1176246952	-0.220831
H	 0.9142000176	 1.7949290541	 0.5713408109	 0.153741
H	-0.1063228735	 1.9354651386	-0.8874889315	 0.158083
H	-0.8406519416	 1.7724773592	 0.7322206162	 0.15373
H	-0.1711760815	-2.4608407484	-2.2078618959	 0.133351
H	 0.1343247462	-4.297488808	 0.8825266743	 0.3143
113.5991	138.866	176.0611	294.2615	312.4831	370.2042	417.4081	483.363	540.9226	549.6202	587.8792	659.5378	742.3919	777.3468	791.8766	937.015	973.1684	1021.4183	1063.1399	1122.7725	1207.9339	1240.3886	1276.2594	1340.6329	1410.5481	1462.1645	1472.9934	1473.2089	1646.9379	1703.1229	1810.9988	3047.4086	3103.5501	3169.3853	3195.9762	3691.1768
CC1=NC=C(O)C(=O)O1	Cc1ncc(O)c(=O)o1	
InChI=1S/C5H5NO3/c1-3-6-2-4(7)5(8)9-3/h2,7H,1H3	InChI=1S/C5H5NO3/c1-3-6-2-4(7)5(8)9-3/h2,7H,1H3
