16
gdb 35194	3.84971	1.14251	1.06272	2.257	75.69	-0.2393	0.0127	0.252	1151.3025	0.122783	-400.634887	-400.627108	-400.626164	-400.667279	30.036	
C	-0.0806088857	-1.199665078	 0.0095783847	-0.424893
C	-0.0287001329	 0.0014442831	 0.0032217119	 0.344315
C	 0.0266352188	 1.4356361354	-0.0383366337	-0.287762
O	 0.603340376	 2.1143518258	 1.1053320541	-0.277011
C	 1.3155617468	 2.1539092144	-0.1066403456	 0.467804
C	 2.7653214051	 1.6839283764	-0.2235528129	-0.265879
N	 3.1655410357	 3.0003917404	-0.8531873003	-0.122978
C	 2.3698133698	 3.1096118665	-2.0854472925	-0.238872
C	 1.7060311405	 3.4335989208	-0.8024947549	-0.14019
H	-0.1274142836	-2.2607433687	 0.0239630551	 0.205939
H	-0.8562504241	 1.9314365524	-0.4403147162	 0.120525
H	 3.2370168675	 1.5737801702	 0.7548001831	 0.136091
H	 2.9754692092	 0.8059213471	-0.8417077815	 0.119019
H	 2.6728255588	 3.9394225119	-2.7165784825	 0.129737
H	 2.0936455472	 2.2043158014	-2.6230023163	 0.118997
H	 1.402069681	 4.4320113808	-0.5077311324	 0.115159
92.9613	117.2234	183.3179	282.0155	352.4471	407.013	474.6972	482.8768	554.636	602.2511	626.5693	676.9636	746.7044	786.7815	833.9404	849.0983	928.9568	950.6073	975.8603	1022.7098	1043.4744	1061.3647	1088.529	1115.2608	1125.563	1173.324	1197.794	1226.5554	1269.5405	1314.9984	1345.9595	1473.5846	1486.9513	1504.9451	2238.9565	3058.7266	3101.1601	3116.7049	3127.0565	3177.529	3198.1359	3501.889
C#CC1OC11CN2CC12	C#C[C@H]1O[C@]21CN1C[C@@H]21	
InChI=1S/C7H7NO/c1-2-6-7(9-6)4-8-3-5(7)8/h1,5-6H,3-4H2	InChI=1S/C7H7NO/c1-2-6-7(9-6)4-8-3-5(7)8/h1,5-6H,3-4H2/t5-,6+,7+,8?/m0/s1
