15
gdb 130123	3.18159	1.4157	0.98072	3.0248	75.2	-0.1859	-0.0324	0.1535	1125.85	0.114794	-450.141339	-450.133429	-450.132485	-450.17339	31.098	
N	 0.0246718899	 1.3526477601	 0.1566515325	-0.563255
C	 0.0108312691	-0.0293547533	 0.0468234892	 0.330586
N	-1.1186410924	-0.6626558236	 0.0243862015	-0.291028
N	-1.0704217211	-2.021597725	 0.0094457087	-0.330959
C	 0.0543381689	-2.8417576807	-0.0101746236	 0.401253
N	 0.0507222004	-4.1296531765	-0.0296841034	-0.582202
C	 1.2930478903	-2.0851768174	-0.0119938921	-0.276995
C	 1.2809529157	-0.7367748677	 0.0170356996	 0.36649
O	 2.3761243944	 0.0651667036	 0.0059227149	-0.442218
H	 0.8251307173	 1.7980324135	-0.2666531644	 0.262764
H	-0.8566915751	 1.7823749291	-0.0854792219	 0.256741
H	-1.9819142042	-2.4507406459	 0.0011355785	 0.257855
H	-0.9013969599	-4.4987986247	-0.02854169	 0.189794
H	 2.2117114619	-2.6602690061	-0.0392255605	 0.11275
H	 3.1713725947	-0.4785194654	-0.0320877392	 0.308425
102.2238	201.0506	291.9412	324.6356	352.2324	364.35	391.3572	448.5494	470.7913	530.6531	533.552	578.0526	626.9463	672.633	733.0063	754.4196	768.2687	816.3946	886.6548	957.7866	1073.8273	1141.8996	1178.4334	1238.7808	1264.4645	1339.8349	1374.5214	1456.9386	1514.3669	1620.6143	1629.166	1676.1695	1725.9441	3198.9705	3457.0469	3567.7126	3636.362	3679.5361	3808.4888
NC1=NNC(=N)C=C1O	NC1=NNC(=C[C@H]1O)[NH]	
InChI=1S/C4H6N4O/c5-3-1-2(9)4(6)8-7-3/h1H,(H2,6,8)(H3,5,7,9)	InChI=1S/C4H7N4O/c5-3-1-2(9)4(6)8-7-3/h1-2,5,7,9H,(H2,6,8)/t2-/m1/s1
