21
gdb 100477	3.97503	0.62791	0.57411	0.9393	91.77	-0.2331	0.0428	0.2759	2013.1208	0.180064	-387.038608	-387.028015	-387.027071	-387.076161	37.221	
C	-0.0269104558	 1.4655701165	-0.4533737668	-0.229364
O	-0.2192380755	 0.070187623	-0.4714491513	-0.240675
C	 0.8310510493	-0.6546400068	-1.1105295476	-0.042015
C	 2.0581641844	-0.8098496345	-0.1961201494	-0.389835
C	 0.3065526546	-1.9583447762	-1.5122789607	 0.043803
C	-0.0951180512	-3.0454127026	-1.8439209409	 0.12443
C	-0.5842212784	-4.3347739873	-2.2351929092	-0.160415
C	-2.020396411	-4.4912791716	-2.7129464515	-0.249452
C	-0.8966819679	-4.6260548771	-3.6956721448	-0.252128
H	 0.8271905597	 1.7732999423	 0.1680234044	 0.104809
H	 0.1232616531	 1.8695348605	-1.4674134462	 0.102776
H	-0.9342381306	 1.905357215	-0.0319490532	 0.128485
H	 1.136564309	-0.1039394272	-2.017596784	 0.086332
H	 1.7749987957	-1.3421779429	 0.715250003	 0.133292
H	 2.8403526029	-1.3780869577	-0.7067361221	 0.125087
H	 2.4672600357	 0.1670264874	 0.0765885573	 0.114213
H	-0.1868797162	-5.1694274757	-1.664673209	 0.108734
H	-2.5496501457	-5.3849649519	-2.4023390801	 0.118089
H	-2.625228765	-3.5933659463	-2.7481514119	 0.130494
H	-0.7371323482	-3.8203246309	-4.4020425319	 0.125993
H	-0.6466104587	-5.613257116	-4.0676252544	 0.117345
22.0136	62.673	78.1845	105.6703	179.9283	204.2534	211.2025	248.7081	345.1746	379.1184	443.5827	509.2207	526.4468	562.4506	718.6718	793.2174	822.9179	838.2555	895.7818	896.4105	991.3835	1046.6278	1062.1002	1080.082	1085.607	1109.4249	1118.5427	1139.05	1179.6716	1191.7356	1201.147	1216.9194	1233.2061	1342.9012	1369.5127	1395.8214	1396.4947	1467.1734	1474.6266	1481.2937	1491.1859	1497.8538	1499.5687	1511.4968	2361.4773	2943.4221	2973.0128	3020.4507	3048.0008	3112.172	3121.1793	3132.9885	3141.1125	3142.2561	3147.5533	3226.3304	3241.5218
COC(C)C#CC1CC1	CO[C@@H](C)C#CC1CC1	
InChI=1S/C8H12O/c1-7(9-2)3-4-8-5-6-8/h7-8H,5-6H2,1-2H3	InChI=1S/C8H12O/c1-7(9-2)3-4-8-5-6-8/h7-8H,5-6H2,1-2H3/t7-/m0/s1
