18
gdb 54345	2.03228	1.79006	1.12259	2.7769	78.61	-0.2411	0.0216	0.2627	1114.7355	0.146539	-401.941974	-401.932664	-401.93172	-401.977409	34.779	
N	 0.0693806281	 1.2299004564	 0.4836906649	-0.567128
C	-0.0398964821	 0.1225863579	-0.2904435045	 0.40212
O	 0.8214941801	-0.2265182584	-1.0777253431	-0.378173
C	-1.3358647025	-0.6966108929	-0.126901472	 0.009025
C	-1.9386608418	-1.0400708581	-1.5455146159	-0.24166
C	-1.2495497442	-2.4258451037	-1.4970898523	-0.210791
C	-0.9892401423	-2.2305054202	 0.0167396238	-0.24165
C	-2.2635372267	-0.1570245092	 0.8479561547	 0.190947
C	-3.0410957433	 0.2831141095	 1.6558155675	-0.374948
H	 0.9029198249	 1.7879730091	 0.4022469766	 0.260234
H	-0.6576494936	 1.4946399641	 1.1263287997	 0.268459
H	-3.0273836386	-1.0974110616	-1.4947135526	 0.110736
H	-1.6448371774	-0.3651245452	-2.3502475218	 0.120616
H	-1.860141357	-3.2853804362	-1.7810328676	 0.095191
H	-0.3208659906	-2.4329228364	-2.0668092927	 0.132962
H	 0.0155243942	-2.4467960644	 0.3816044538	 0.120658
H	-1.7243731033	-2.7311594002	 0.6492803192	 0.110703
H	-3.7382188637	 0.6571648995	 2.3644712623	 0.192701
9.796	133.0123	169.6685	175.3508	243.2339	270.9804	273.7739	400.39	500.3515	514.2593	523.6015	611.4763	614.1678	619.5944	636.7508	700.3992	764.7704	798.7377	837.9413	885.37	960.9983	970.0291	991.1262	1081.5249	1093.566	1122.2906	1204.4373	1227.6713	1262.1394	1264.7029	1284.8791	1290.1631	1360.9138	1466.4428	1472.5033	1493.5286	1605.462	1784.497	2218.6248	3075.4495	3076.4934	3083.5154	3130.4422	3139.0043	3154.3416	3496.9057	3595.0875	3732.7612
NC(=O)C1(CCC1)C#C	NC(=O)C1(CCC1)C#C	
InChI=1S/C7H9NO/c1-2-7(6(8)9)4-3-5-7/h1H,3-5H2,(H2,8,9)	InChI=1S/C7H9NO/c1-2-7(6(8)9)4-3-5-7/h1H,3-5H2,(H2,8,9)
