18
gdb 52741	2.32404	0.96919	0.71729	3.4549	82.42	-0.2479	-0.0328	0.2151	1577.4436	0.144909	-401.900047	-401.889753	-401.888809	-401.93971	34.436	
C	-0.3314727095	 1.663372881	-0.0219852573	-0.498945
C	-0.1406587581	 0.2204142485	-0.0049782269	 0.096662
C	 0.0332819607	-0.9710067783	 0.0196347552	 0.044579
C	 0.187618707	-2.4202232156	 0.0218581513	-0.296523
C	-1.1742920675	-3.1219258079	 0.1229307719	 0.173532
O	-1.3431206233	-4.1311455775	 0.7536690657	-0.247252
C	 0.8884059966	-2.9304457667	-1.2443753196	 0.015953
C	 2.3238004745	-3.2979815722	-1.1881559386	-0.234495
N	 1.2897580253	-4.3377360339	-1.3259320156	-0.318465
H	 0.6278406589	 2.1895975992	 0.0297844433	 0.153657
H	-0.8378989516	 1.9855478451	-0.9382198784	 0.152653
H	-0.9386774279	 1.9936700577	 0.8277340642	 0.153643
H	 0.7647202052	-2.7547676726	 0.893075437	 0.116859
H	-1.9905355239	-2.6441087872	-0.4600406392	 0.096502
H	 0.480330261	-2.5276968774	-2.1682033002	 0.105586
H	 2.9561807277	-3.1625165437	-2.0607249421	 0.125027
H	 2.8345896546	-3.1846485378	-0.2351492101	 0.117258
H	 1.1199006904	-4.8011954907	-0.4354269707	 0.243771
3.3928	41.6733	63.7493	100.2717	121.0444	208.2231	275.272	289.7265	350.2204	402.1944	467.3338	481.4542	507.7576	795.8082	823.6466	882.6342	924.7742	951.6319	969.5596	1044.4371	1052.0928	1053.4534	1077.6341	1124.5022	1155.414	1173.078	1194.8657	1233.0588	1261.858	1285.1413	1316.7638	1395.1218	1413.6094	1415.7585	1476.8347	1477.4037	1511.5877	1828.7634	2369.7999	2906.1555	3029.6388	3031.258	3091.9924	3092.2381	3108.1533	3137.8086	3194.6356	3494.3235
CC#CC(C=O)C1CN1	CC#C[C@@H](C=O)[C@H]1CN1	
InChI=1S/C7H9NO/c1-2-3-6(5-9)7-4-8-7/h5-8H,4H2,1H3	InChI=1S/C7H9NO/c1-2-3-6(5-9)7-4-8-7/h5-8H,4H2,1H3/t6-,7+/m0/s1
