20
gdb 57808	3.63558	0.70208	0.65167	1.125	84.6	-0.2372	0.0341	0.2713	1786.1738	0.168885	-403.080822	-403.070537	-403.069593	-403.117996	36.498	
C	 0.1893071787	 0.9861452847	-0.1085198864	-0.384419
C	-0.3751764453	-0.1855182394	 0.7083624672	-0.019305
O	-0.3828718752	 0.1035342731	 2.1049969134	-0.412924
C	-1.7023833798	-0.5847501085	 0.2261503726	 0.056382
C	-2.8126063596	-0.8584177932	-0.1591559367	 0.034348
C	-4.1548307883	-1.2462704748	-0.6068189747	-0.282892
N	-4.6269652674	-2.5879912822	-0.2422197111	-0.074356
C	-3.6640418061	-3.6834337316	-0.2175317679	-0.217385
C	-4.2315361195	-3.1407787501	 1.04869525	-0.219178
H	 1.1729848772	 1.2594377561	 0.2818690963	 0.126579
H	 0.2841291725	 0.7160726735	-1.1642313087	 0.125899
H	-0.4722493237	 1.8557010009	-0.0382746461	 0.117379
H	 0.3075199547	-1.0386435282	 0.6134604499	 0.118549
H	-1.0729458827	 0.7586104822	 2.2583369388	 0.281924
H	-4.8863116689	-0.5288755021	-0.214350144	 0.135841
H	-4.2053057631	-1.1714498222	-1.7002328628	 0.137234
H	-4.0206172091	-4.6229812635	-0.6298063194	 0.115074
H	-2.6200661766	-3.4533423151	-0.4178618156	 0.120863
H	-3.5557010525	-2.5591462158	 1.6717048942	 0.125354
H	-5.0123986252	-3.6753121639	 1.5820059409	 0.115032
17.5412	64.8189	78.7364	142.5037	165.367	251.7788	281.7794	325.0393	340.267	361.9674	390.7042	504.265	545.2514	599.315	736.0958	756.6523	825.6103	873.1783	894.4466	982.6692	1004.5363	1028.8335	1060.8564	1062.5875	1094.8019	1117.7815	1125.1491	1164.2333	1173.9361	1186.0971	1283.1072	1288.7157	1311.1392	1335.8947	1360.0951	1397.6589	1418.1639	1465.9604	1481.7338	1487.4842	1491.4226	1511.5969	2342.126	3024.5344	3036.9203	3040.8204	3055.5931	3104.074	3106.5674	3114.4988	3128.0077	3185.9334	3199.4206	3803.8168
CC(O)C#CCN1CC1	C[C@@H](O)C#CCN1CC1	
InChI=1S/C7H11NO/c1-7(9)3-2-4-8-5-6-8/h7,9H,4-6H2,1H3	InChI=1S/C7H11NO/c1-7(9)3-2-4-8-5-6-8/h7,9H,4-6H2,1H3/t7-/m1/s1
