18
gdb 109016	4.05778	1.11178	0.97618	3.2908	72.73	-0.2488	0.0146	0.2634	1238.8654	0.146998	-439.088227	-439.079622	-439.078677	-439.121524	32.155	
C	-0.022869691	 1.4628475694	-0.0535980361	-0.474946
C	 0.0793247174	-0.0303678154	 0.017114702	 0.391588
C	-0.8083170032	-0.9161186727	 0.8456953963	-0.349466
C	 0.689457328	-0.9082759639	 1.0995511816	-0.063431
N	 1.449470228	-1.9206064965	 0.4050101069	-0.334435
C	 1.2813631372	-1.6963608608	-0.8394494437	 0.365181
C	 1.8682738557	-2.540762452	-1.9282838123	-0.132308
O	 2.6785697492	-3.5583260009	-1.4024307278	-0.421161
O	 0.5344433427	-0.6264363153	-1.2060779617	-0.272341
H	 0.9302733896	 1.9059933282	-0.3575616784	 0.133529
H	-0.791219747	 1.7714152904	-0.770144149	 0.135768
H	-0.2943832438	 1.8648214937	 0.9262035789	 0.128545
H	-1.4284011724	-0.4132819246	 1.5799349358	 0.122386
H	-1.2465543139	-1.8010256921	 0.3961967004	 0.125958
H	 1.0877321453	-0.5505242229	 2.0415555612	 0.10577
H	 1.0458764736	-2.9593176379	-2.5302653435	 0.118978
H	 2.446295644	-1.8902432555	-2.6022304982	 0.121666
H	 2.6056705605	-3.4901422212	-0.4393699824	 0.298717
72.0147	148.9074	178.0988	194.5305	247.4586	292.0539	309.4427	415.1966	437.6469	478.9199	629.2718	647.9243	702.4927	772.8137	811.0954	879.4149	946.7538	959.1697	976.2041	1034.384	1040.9315	1049.0046	1100.5141	1111.5884	1114.5088	1142.929	1214.5493	1241.3285	1270.514	1288.7641	1345.3691	1388.3467	1424.5571	1472.5817	1477.1979	1482.575	1499.6169	1506.998	1702.426	2983.4156	3005.3567	3039.0308	3105.5266	3121.4245	3130.9419	3182.1644	3224.3257	3724.2081
CC12CC1N=C(CO)O2	C[C@]12C[C@H]1N=C(CO)O2	
InChI=1S/C6H9NO2/c1-6-2-4(6)7-5(3-8)9-6/h4,8H,2-3H2,1H3	InChI=1S/C6H9NO2/c1-6-2-4(6)7-5(3-8)9-6/h4,8H,2-3H2,1H3/t4-,6+/m1/s1
