23
gdb 94730	2.53567	1.42709	1.21327	1.2013	84.36	-0.2483	0.0766	0.3249	1169.8011	0.206555	-388.303164	-388.29423	-388.293286	-388.336334	35.627	
C	-0.1554096865	 1.5642646692	-0.0437619155	-0.410715
C	 0.0948009633	 0.0571539109	-0.0648629245	 0.030045
C	 1.0365173459	-0.4318756946	-1.1878109031	-0.220116
C	 1.3924316912	-1.8717103589	-0.7717458247	-0.293653
C	 1.4515827798	-1.8542851212	 0.7718759575	 0.424803
O	 0.9132867832	-3.0203324437	 1.3641557589	-0.490191
C	 2.7776193361	-1.3300839282	 1.3985786638	-0.282501
C	 2.1008158369	 0.0432282312	 1.6668537712	-0.235586
C	 0.7285265303	-0.5385333095	 1.2038730648	-0.033466
H	 0.7736245105	 2.1242543564	 0.1083257336	 0.113465
H	-0.5925843714	 1.9030276546	-0.9893238707	 0.11044
H	-0.8462950523	 1.8423467764	 0.7593140227	 0.111813
H	-0.8714299676	-0.4487912315	-0.2044250188	 0.073891
H	 0.5762919648	-0.3780745042	-2.1791223589	 0.093494
H	 1.9369699066	 0.1947008318	-1.2222197478	 0.096295
H	 0.5809970591	-2.5504538305	-1.0584315146	 0.100858
H	 2.3154538028	-2.2406338361	-1.2325324651	 0.085393
H	 1.4265222426	-3.7752410663	 1.0554950886	 0.271187
H	 3.0164879371	-1.8750525804	 2.3148626984	 0.101509
H	 3.6581154544	-1.3239734639	 0.7485954434	 0.086505
H	 2.1334494737	 0.3864515869	 2.7026871568	 0.099385
H	 2.4777914373	 0.8507511435	 1.0347132346	 0.097934
H	 0.0179514523	-0.6731234717	 2.0215373295	 0.06921
73.8319	169.0686	211.9215	234.1274	246.1186	262.1602	325.979	396.9206	404.4731	514.2816	552.1226	562.6356	618.7103	738.0639	785.0762	811.7907	866.8596	889.1358	923.7609	949.1058	959.0795	975.1421	985.3131	999.8864	1047.3958	1063.9387	1087.2666	1137.746	1166.5058	1189.073	1202.958	1228.3396	1233.2177	1234.4738	1265.4873	1273.6508	1311.0456	1315.6758	1333.142	1347.7638	1374.0259	1379.1671	1411.4066	1468.0081	1486.3752	1489.0702	1497.6293	1499.1471	1507.4928	2998.0445	3027.5287	3030.5023	3032.6199	3046.6128	3066.4847	3073.9981	3085.7129	3089.8265	3093.4236	3096.9442	3102.6851	3121.5853	3795.6611
CC1CCC2(O)CCC12	C[C@H]1CC[C@@]2(O)CC[C@@H]12	
InChI=1S/C8H14O/c1-6-2-4-8(9)5-3-7(6)8/h6-7,9H,2-5H2,1H3	InChI=1S/C8H14O/c1-6-2-4-8(9)5-3-7(6)8/h6-7,9H,2-5H2,1H3/t6-,7-,8+/m0/s1
