20
gdb 96262	2.4235	1.50159	1.03569	2.8845	75.6	-0.2512	0.0057	0.2569	1169.3949	0.172263	-440.280118	-440.271599	-440.270655	-440.313038	32.883	
O	-0.1633378156	 1.4469617412	 0.1279159736	-0.438369
C	-0.0043727533	 0.031407265	 0.0249927439	 0.134812
C	 0.8857342292	-0.4914703994	 1.1751257573	-0.23814
C	 1.6787133792	-1.7579508735	 0.8467311448	-0.090081
O	 0.8682101619	-2.7843553841	 0.26557666	-0.223254
C	-0.1900637067	-3.1722437741	 1.0463325809	 0.091466
N	-1.3895155972	-2.8729611508	 0.8171668866	-0.20638
C	-1.6610056594	-1.9873378521	-0.3221047333	-0.172442
C	-1.4472542939	-0.5006226561	 0.0062150147	-0.17949
H	 0.7095467114	 1.8504170289	 0.0932185761	 0.277802
H	 0.4760076341	-0.2227448876	-0.9352823532	 0.068022
H	 1.620344324	 0.2836928819	 1.4301902954	 0.089192
H	 0.2766279737	-0.6376508581	 2.0741017232	 0.119379
H	 2.4437290122	-1.552779608	 0.0922905999	 0.11766
H	 2.185365944	-2.1358727395	 1.7473858766	 0.103125
H	 0.078177106	-3.7991936013	 1.9011653775	 0.10904
H	-1.0592477499	-2.2649814274	-1.1959622979	 0.11009
H	-2.7132078146	-2.1261720171	-0.5856152497	 0.10371
H	-1.9156027178	-0.2692555442	 0.9701500525	 0.112935
H	-1.9761719275	 0.0921194864	-0.7475802791	 0.110923
95.5935	167.9317	192.8841	245.9283	287.9652	295.4689	322.9883	376.2527	422.5387	486.6988	518.8211	614.5986	704.8804	794.1198	842.6195	873.1717	896.2971	952.3423	990.0706	1001.759	1038.9255	1048.6558	1076.9122	1098.6812	1119.1387	1136.9488	1206.2016	1232.055	1274.3099	1289.7518	1299.3049	1343.0484	1360.4127	1372.77	1387.8333	1403.7315	1415.5323	1427.9641	1470.6742	1487.0132	1499.8557	1501.1726	1750.0686	2952.7803	2996.9848	3026.175	3030.5265	3040.1814	3066.6043	3082.9075	3085.8072	3092.0784	3098.208	3818.5568
OC1CCOC=NCC1	O[C@H]1CCOC=NCC1	
InChI=1S/C6H11NO2/c8-6-1-3-7-5-9-4-2-6/h5-6,8H,1-4H2/b7-5-	InChI=1S/C6H11NO2/c8-6-1-3-7-5-9-4-2-6/h5-6,8H,1-4H2/b7-5-/t6-/m1/s1
