23
gdb 103956	2.46358	1.342	1.08005	1.2558	85.64	-0.2461	0.0733	0.3195	1243.7752	0.204938	-388.257436	-388.247752	-388.246808	-388.291338	37.575	
C	 0.21621879	 1.6609537154	-0.5148104189	-0.423692
C	 0.3080331853	 0.1715724919	-0.2441311961	-0.003185
C	 1.5385194326	-0.6778619818	-0.3822665925	-0.069032
C	 2.7842136299	 0.0152374405	 0.1926430543	-0.287571
C	 2.1170019978	 0.0140333971	 1.6128870976	 0.346553
C	 2.7643663544	-1.0436812761	 2.5142883287	-0.437251
C	 2.0160150628	 1.3385764224	 2.3622258257	-0.140296
O	 3.3368610942	 1.7643598348	 2.6842793349	-0.426994
C	 0.8289649594	-0.5491763476	 0.9779598242	-0.130849
H	 1.1579765453	 2.1852814697	-0.3419664258	 0.124258
H	-0.0584364422	 1.8311340826	-1.5620462799	 0.11152
H	-0.5509869124	 2.1349173954	 0.1078488129	 0.113528
H	-0.5682670046	-0.3568515476	-0.6199194159	 0.083511
H	 1.5681920039	-1.534242429	-1.0460064712	 0.078969
H	 3.6833471482	-0.6029984043	 0.1591803511	 0.100892
H	 3.0319581972	 0.9935920521	-0.2299849614	 0.096355
H	 3.7587879953	-0.7196370099	 2.8306070356	 0.13184
H	 2.1590916493	-1.2117303276	 3.4135577796	 0.101872
H	 2.8546465821	-1.9997330699	 1.989166491	 0.107403
H	 1.5039071293	 2.0947487228	 1.7555174153	 0.084585
H	 1.4131888788	 1.1879927374	 3.2741393275	 0.07812
H	 3.2769056786	 2.6032206454	 3.1497422419	 0.286104
H	 0.2077708149	-1.2856208335	 1.4789310114	 0.07336
87.4485	137.2665	160.2644	238.3051	243.7365	258.4983	266.9539	286.5236	362.1122	377.6377	436.8998	466.1885	591.9338	648.8479	712.6335	780.9562	823.4055	871.6139	915.0576	938.8459	965.1264	974.7828	987.827	1005.3811	1011.0656	1057.5701	1063.5224	1079.5561	1117.0707	1148.1623	1172.1706	1186.9662	1219.6702	1239.5166	1249.4483	1281.79	1287.2486	1312.326	1358.9482	1401.2268	1412.3518	1444.8275	1454.3009	1488.9409	1491.7695	1499.6141	1501.3147	1505.5605	1525.3169	2958.2678	3026.1946	3030.0809	3043.7784	3055.4701	3083.4163	3090.1773	3103.0199	3109.5191	3124.6031	3127.8481	3148.5079	3173.6442	3834.3231
CC1C2CC(C)(CO)C12	C[C@H]1[C@H]2C[C@@](C)(CO)[C@@H]12	
InChI=1S/C8H14O/c1-5-6-3-8(2,4-9)7(5)6/h5-7,9H,3-4H2,1-2H3	InChI=1S/C8H14O/c1-5-6-3-8(2,4-9)7(5)6/h5-7,9H,3-4H2,1-2H3/t5-,6+,7-,8-/m0/s1
