21
gdb 98976	2.87154	0.8513	0.80474	1.4156	80.51	-0.2471	-0.0389	0.2082	1588.4699	0.178572	-424.279559	-424.268552	-424.267607	-424.317462	37.879	
C	-0.8393840266	 1.6342586871	 0.0179471113	-0.379136
C	-0.7233607628	 0.1684905362	 0.4247272796	-0.282537
C	-1.3191762523	-0.7962509387	-0.581836485	 0.376415
O	-1.7594700963	-0.4531043698	-1.6545522592	-0.301384
C	-1.3983993575	-2.2626602681	-0.1320443437	-0.382735
C	-2.7709801548	-2.4587713202	 0.5286501722	 0.376424
O	-2.935675428	-2.2078771728	 1.7000814957	-0.301384
C	-3.8849622351	-2.9144371837	-0.3934685385	-0.282539
C	-5.2647986113	-2.9110305158	 0.2572608913	-0.379138
H	-0.3740270522	 2.2806918504	 0.7669225325	 0.113611
H	-0.3535779122	 1.8115691997	-0.9448051566	 0.132675
H	-1.8869904609	 1.9285396658	-0.0874069247	 0.131022
H	 0.3265808808	-0.1239632193	 0.5714151458	 0.125256
H	-1.2080211369	-0.0346834313	 1.3898041159	 0.147836
H	-1.2928005235	-2.8978170405	-1.0137308278	 0.127609
H	-0.6269538246	-2.4889194891	 0.6066179849	 0.127605
H	-3.8447081182	-2.2746354639	-1.2859823411	 0.147841
H	-3.6159279112	-3.9174589431	-0.7553968502	 0.125255
H	-6.0231682533	-3.2694815423	-0.4440139528	 0.113611
H	-5.2799523155	-3.5508667194	 1.1431052221	 0.132672
H	-5.5423476974	-1.9037305411	 0.5789645284	 0.131022
36.8551	42.0481	76.081	95.6633	142.6106	189.0168	202.7251	220.7066	249.5804	347.2701	431.9896	490.3455	507.2488	608.2465	630.0527	756.9561	763.9356	785.9225	851.6881	929.5501	990.0342	1000.9771	1006.7436	1059.4663	1098.6473	1110.2431	1118.0688	1130.1999	1231.8519	1235.5226	1280.5272	1289.86	1372.5631	1376.5162	1413.5156	1413.839	1450.6003	1451.5689	1468.6455	1492.0942	1492.2399	1498.2537	1498.3387	1789.1134	1815.0664	3014.7454	3014.793	3045.8484	3046.029	3051.7587	3051.9197	3073.5003	3122.9754	3123.0674	3126.9527	3126.9777	3142.2767
CCC(=O)CC(=O)CC	CCC(=O)CC(=O)CC	
InChI=1S/C7H12O2/c1-3-6(8)5-7(9)4-2/h3-5H2,1-2H3	InChI=1S/C7H12O2/c1-3-6(8)5-7(9)4-2/h3-5H2,1-2H3
