19
gdb 79235	2.13729	1.71791	1.61139	2.0375	74.96	-0.2418	0.0617	0.3035	995.075	0.158824	-422.979312	-422.971026	-422.970082	-423.0115	33.067	
C	-0.003319641	 1.5803866292	-0.0278919899	-0.526598
C	 0.0331638536	 0.0888774457	 0.0352818053	 0.230635
C	-0.0077592158	-0.9807687846	-1.0215910227	-0.120595
C	 1.2803823089	-1.6503463963	-0.5277689865	-0.290827
C	 0.9660877794	-0.982305007	 0.8194491951	 0.347047
O	 1.9542474022	-0.7313805648	 1.7407458696	-0.47772
C	-0.3396341544	-1.660561119	 1.3107570372	 0.074312
O	-0.7128423535	-1.1600773978	 2.5894872432	-0.458312
C	-1.0287993245	-0.9952693865	 0.1327000566	-0.16812
H	 0.9484023261	 1.9850828547	-0.3904401258	 0.131128
H	-0.7915090186	 1.926332424	-0.7060601601	 0.123824
H	-0.1937601371	 2.0278391893	 0.9550980359	 0.112713
H	-0.3484270226	-0.8761926213	-2.0437463276	 0.089031
H	 1.3598187481	-2.7439228359	-0.5385190417	 0.090801
H	 2.1605571464	-1.2098562399	-1.0041938803	 0.107703
H	 1.5056450609	-0.6859572429	 2.5987137276	 0.283782
H	-0.3387566842	-2.7525092984	 1.4014166077	 0.079198
H	-1.0609739367	-0.2699507521	 2.4596719692	 0.285361
H	-2.0932035572	-0.9193318564	-0.0559441029	 0.086639
150.9006	176.0889	191.813	235.0031	271.6888	334.743	402.5381	442.6926	456.4682	525.4216	552.5659	621.4374	684.3177	732.4713	774.638	855.7389	861.2307	891.1458	954.9071	985.3119	996.502	1007.8374	1010.6506	1073.4737	1091.2444	1117.6713	1125.3079	1158.4361	1216.926	1228.2572	1253.2845	1272.1595	1283.4055	1348.0256	1403.0996	1411.7717	1424.9525	1453.1997	1483.4029	1497.2274	1504.8656	3018.0779	3030.1461	3051.854	3075.5857	3088.1454	3098.7033	3183.7137	3198.8277	3714.9628	3792.9827
CC12C3CC1(O)C(O)C23	C[C@@]12[C@H]3C[C@]1(O)[C@@H](O)[C@@H]23	
InChI=1S/C7H10O2/c1-6-3-2-7(6,9)5(8)4(3)6/h3-5,8-9H,2H2,1H3	InChI=1S/C7H10O2/c1-6-3-2-7(6,9)5(8)4(3)6/h3-5,8-9H,2H2,1H3/t3-,4-,5-,6-,7-/m0/s1
