17
gdb 20969	4.63578	1.56566	1.20037	2.4908	71.2	-0.1839	0.0308	0.2147	991.0561	0.14389	-360.04504	-360.037111	-360.036167	-360.077624	28.972	
C	 0.1456049101	 1.4159603918	 0.0156433791	-0.333181
N	-0.302022579	 0.0338350332	 0.0223964818	-0.160474
C	 0.0086929338	-0.7047281253	 1.2298462422	-0.328013
C	-0.1367257015	-0.6714396142	-1.1720239988	 0.27579
C	 0.0337248486	-2.0381247645	-1.3409375928	-0.148566
N	 0.0900826968	-2.2488126134	-2.6863932392	-0.186827
N	-0.0126595176	-1.1259609726	-3.4053613094	-0.223456
C	-0.1491578598	-0.1611932531	-2.4980542246	-0.096907
H	 1.2375625695	 1.5220091905	-0.1061222218	 0.106116
H	-0.3413442187	 1.9666271323	-0.7933047242	 0.132133
H	-0.1436534989	 1.890316858	 0.9575328348	 0.119443
H	-0.2287352767	-0.0902808442	 2.102268213	 0.119793
H	-0.6060833957	-1.6093366841	 1.2813766283	 0.125599
H	 1.0691708234	-1.0078833449	 1.2968916371	 0.101893
H	 0.1155639529	-2.8483129716	-0.6367911382	 0.123358
H	 0.2059783358	-3.1260894078	-3.162662455	 0.270808
H	-0.2504186032	 0.8623460401	-2.8235930023	 0.102492
47.2567	165.1537	192.9103	209.7039	264.6899	376.7987	393.1998	456.4743	484.9783	615.1171	651.3779	689.1808	731.1521	844.4037	940.4522	948.7623	1019.0744	1078.3106	1081.6231	1127.9814	1167.5917	1176.4928	1226.1699	1246.8098	1296.3148	1362.5377	1404.7628	1412.3013	1447.0048	1478.2658	1484.9181	1493.1748	1497.9172	1509.8995	1522.4901	1632.1207	2942.783	2957.3009	3061.5896	3076.1246	3110.0348	3117.0675	3256.0739	3278.5815	3683.5766
CN(C)C1=CNN=C1	CN(C)c1c[nH]nc1	
InChI=1S/C5H9N3/c1-8(2)5-3-6-7-4-5/h3-4H,1-2H3,(H,6,7)	InChI=1S/C5H9N3/c1-8(2)5-3-6-7-4-5/h3-4H,1-2H3,(H,6,7)
