17
gdb 89780	2.45081	1.50106	1.07574	1.038	74.37	-0.258	0.0325	0.2905	1124.1459	0.133681	-421.752097	-421.743499	-421.742555	-421.78534	32.804	
O	 0.445475656	 0.7596955523	-0.7689820554	-0.429104
C	-0.0243149721	-0.2412359578	 0.0753428246	 0.161728
C	-0.0847517745	 0.00661685	 1.6135251281	-0.364434
C	-1.4302149128	-0.7120914662	 1.6191920297	 0.478634
C	-1.8863562537	-1.8311135667	 2.4434238923	-0.267809
O	-2.4633643963	-0.5194324269	 2.5529253689	-0.261396
C	-1.5794782251	-0.5637016377	 0.0855669856	-0.376863
C	-2.3683296234	 0.5800327969	-0.3232456773	 0.326648
C	-2.9502586307	 1.5745656914	-0.6716362344	-0.439252
H	-0.2176499537	 1.4632329806	-0.7884912616	 0.284165
H	 0.5392407153	-1.1473696172	-0.1598169309	 0.100821
H	 0.7222794939	-0.3932248893	 2.2303941765	 0.111572
H	-0.2115749492	 1.0725846519	 1.8272394774	 0.122695
H	-2.5388964158	-2.5914146088	 2.0159222417	 0.119943
H	-1.2915712478	-2.1511653177	 3.2979544195	 0.120513
H	-1.8828392843	-1.4630453718	-0.4575232852	 0.107477
H	-3.5096694559	 2.4274563272	-0.9683822895	 0.204662
73.0263	119.9497	149.9727	267.9679	307.4612	346.9839	375.6196	397.7262	428.9413	489.8586	548.4691	631.4943	654.4973	661.2467	748.9579	805.557	857.8765	882.955	910.1165	967.5351	1021.561	1056.9418	1096.8596	1126.7436	1139.8166	1163.7402	1183.3323	1186.7679	1229.2683	1250.2708	1304.5939	1344.7535	1430.0198	1446.7753	1476.6788	1536.572	2224.6457	3060.4332	3067.6623	3080.9391	3085.2487	3123.6795	3169.3264	3500.7115	3745.5957
OC1CC2(CO2)C1C#C	O[C@H]1C[C@]2(CO2)[C@H]1C#C	
InChI=1S/C7H8O2/c1-2-5-6(8)3-7(5)4-9-7/h1,5-6,8H,3-4H2	InChI=1S/C7H8O2/c1-2-5-6(8)3-7(5)4-9-7/h1,5-6,8H,3-4H2/t5-,6-,7-/m0/s1
