18
gdb 127120	4.06838	1.12667	0.90036	2.3061	77.55	-0.2075	-0.0093	0.1981	1302.2642	0.148023	-431.431875	-431.422506	-431.421562	-431.466482	32.266	
C	-0.105562644	 1.3862899893	-0.0330754089	-0.336892
N	 0.216389452	-0.0307452442	-0.0500772148	-0.148393
C	 0.012870126	-0.7664699858	 1.183956035	-0.330166
C	 0.0919124655	-0.7083038878	-1.2296257417	 0.520658
N	 0.0532478864	-2.0410902058	-1.3297251971	-0.380426
N	-0.0058393905	-2.1940495766	-2.6580215812	 0.157366
C	-0.0623252862	-3.489768119	-3.2969647292	-0.315718
N	-0.0193361151	-1.0633496801	-3.3326539191	-0.126733
N	 0.0379577842	-0.0970742459	-2.4474259409	-0.312707
H	 0.4318006194	 1.8642965936	 0.7915552639	 0.121283
H	 0.2050347459	 1.8413952777	-0.9731078412	 0.166787
H	-1.1828442837	 1.5708329451	 0.1028710474	 0.113916
H	-1.0532831644	-0.9187965836	 1.4155536154	 0.114517
H	 0.4892470722	-1.7451530297	 1.1122726399	 0.154573
H	 0.4679836423	-0.2097308949	 2.0082487563	 0.12207
H	-0.9459390602	-4.0348455433	-2.9562171849	 0.155521
H	-0.116228799	-3.3196878682	-4.3715619214	 0.168488
H	 0.8326055393	-4.0663021406	-3.0506699675	 0.155857
74.6557	114.1416	120.4323	158.2016	169.4736	204.3394	213.5253	350.0144	371.1002	373.8043	543.9096	599.4683	673.6904	759.965	779.8245	973.551	1031.1332	1061.8636	1089.2033	1097.5257	1131.2358	1151.525	1178.22	1236.1386	1259.3334	1296.0533	1336.4698	1420.4475	1445.0985	1447.7814	1449.7765	1464.6306	1474.1895	1484.8336	1495.0454	1502.6423	1510.6372	1514.1067	1633.9572	2980.3344	2985.7789	3058.953	3077.7073	3080.0273	3127.3714	3141.7453	3156.3534	3174.4721
CN(C)C1=NN(C)N=N1	CN(C)c1nn(C)nn1	
InChI=1S/C4H9N5/c1-8(2)4-5-7-9(3)6-4/h1-3H3	InChI=1S/C4H9N5/c1-8(2)4-5-7-9(3)6-4/h1-3H3
