17
gdb 18828	3.86857	2.35436	1.79289	1.4796	75.68	-0.2002	-0.0321	0.1681	776.5038	0.142533	-326.608448	-326.601802	-326.600858	-326.63884	26.54	
C	-0.2195987205	 1.2884966579	-0.2534769615	-0.467669
C	-0.0390665868	-0.0653231229	 0.3565726808	 0.249833
C	-1.0527465483	-0.9505680796	 0.5492527715	-0.081281
C	-1.7055791312	-1.3984227828	-0.7698920517	-0.168023
N	-0.6925708024	-2.5476540867	-0.7661176263	-0.157584
C	 0.6865949632	-2.2378056962	-0.1082927826	-0.013462
C	 1.2615522449	-0.8384665939	 0.1718995052	-0.315963
C	-0.5228519252	-2.3800921754	 0.7030780956	-0.068687
H	 0.2507943318	 1.3587730397	-1.2441857212	 0.121471
H	-1.2788486374	 1.5448428919	-0.3462346455	 0.126725
H	 0.2510556022	 2.0643912421	 0.3648113262	 0.130849
H	-2.690979938	-1.8713608695	-0.715306306	 0.115136
H	-1.6634352768	-0.7081453552	-1.618180871	 0.107436
H	 1.3477667462	-3.0751954985	-0.3117947858	 0.09832
H	 1.823184425	-0.3905984211	-0.6564471264	 0.114474
H	 1.9567247043	-0.907123494	 1.021415424	 0.117656
H	-0.7993864411	-3.1421203359	 1.4234585547	 0.090769
140.2125	194.2557	253.2474	372.2437	416.2876	490.3087	568.8553	581.0282	720.2808	751.94	787.6773	843.7319	873.7736	912.6376	926.9864	967.2372	987.4295	1011.919	1037.5208	1052.4442	1075.2705	1085.0774	1127.3155	1159.9836	1196.2563	1218.7413	1259.4272	1278.391	1294.4607	1363.2601	1404.6136	1459.7127	1473.2365	1486.3419	1510.4552	1596.4648	2998.9315	3005.2839	3038.8748	3049.0121	3058.7271	3096.8265	3106.1774	3159.1913	3172.5027
CC1=C2CN3C(C1)C23	C[C]1[C]2CN3[C@@H](C1)[C@@H]23	
InChI=1S/C7H9N/c1-4-2-6-7-5(4)3-8(6)7/h6-7H,2-3H2,1H3	InChI=1S/C7H9N/c1-4-2-6-7-5(4)3-8(6)7/h6-7H,2-3H2,1H3/t6-,7+,8?/m0/s1
