20
gdb 97539	2.5286	0.82775	0.728	4.0645	89.02	-0.2628	0.0192	0.282	1688.5548	0.168047	-366.012447	-366.001435	-366.000491	-366.050791	38.54	
C	 0.3516969991	 1.3774516424	 0.4039766765	-0.365067
C	-0.3458847279	 0.1952144089	-0.2940454498	-0.317807
C	 0.4228180504	-0.334885649	-1.4156772044	 0.046976
C	 1.0835379431	-0.7461993906	-2.3341347779	 0.115942
C	 1.8563411831	-1.2803453969	-3.4629440625	-0.106005
C	 2.2285657472	-2.7647019618	-3.206445584	-0.393812
C	 1.0456156119	-1.1513958774	-4.7796697649	-0.393809
C	 3.1058199305	-0.5010159768	-3.6032842241	 0.292706
N	 4.0888501884	 0.0919441461	-3.7343595398	-0.345376
H	 1.32640669	 1.0766064134	 0.7966680038	 0.133876
H	 0.5102799729	 2.202705106	-0.2950050636	 0.133927
H	-0.2597238484	 1.7401746305	 1.2352416151	 0.117454
H	-0.5263326677	-0.6073804417	 0.432279229	 0.13252
H	-1.3354649473	 0.5089433993	-0.6498172832	 0.132535
H	 1.3120052419	-3.351247985	-3.1065870306	 0.131726
H	 2.8152255147	-3.1569145648	-4.041477496	 0.132897
H	 2.8101985748	-2.8645983845	-2.2881514982	 0.143344
H	 0.78935502	-0.1085867553	-4.9756800644	 0.143348
H	 1.6275176597	-1.5370879529	-5.6210437072	 0.132897
H	 0.1220734436	-1.7284231897	-4.6891120837	 0.131727
6.9216	65.2385	104.7884	164.2494	187.3153	217.1962	220.3352	234.622	278.5637	327.3786	341.1593	447.0331	469.7636	504.8664	577.6416	590.1549	645.717	786.2285	807.0951	921.5245	943.5568	960.2229	1039.5219	1067.8346	1098.6663	1104.6307	1141.0719	1214.0562	1268.8599	1285.2431	1348.8566	1394.4229	1410.2836	1417.2862	1475.3954	1478.5401	1481.9963	1493.0035	1494.6759	1505.0082	1505.8745	2356.2818	2368.7719	3022.3838	3047.1262	3048.7022	3050.4999	3051.7736	3121.411	3127.7174	3128.1094	3132.4685	3140.3389	3141.5666
CCC#CC(C)(C)C#N	CCC#CC(C)(C)C#N	
InChI=1S/C8H11N/c1-4-5-6-8(2,3)7-9/h4H2,1-3H3	InChI=1S/C8H11N/c1-4-5-6-8(2,3)7-9/h4H2,1-3H3
