16
gdb 52570	4.00476	0.6426	0.55756	4.0706	79.13	-0.2501	-0.0649	0.1852	1905.2243	0.121229	-437.904477	-437.894139	-437.893195	-437.943922	33.549	
C	 0.0574308563	 1.4385973739	 0.0098499633	-0.505798
C	 0.0260173212	-0.0127049034	 0.0018371237	 0.160406
C	-0.0162285106	-1.2189397273	-0.00464495	-0.011238
C	-0.0427345845	-2.6589308463	-0.0128202884	 0.197084
O	-1.0733328092	-3.3037403892	-0.0037999282	-0.302944
C	 1.3203220263	-3.3344994717	-0.0338827073	-0.225447
N	 1.1506582473	-4.7631536998	-0.0405804619	-0.290638
C	 2.2024556967	-5.616959119	-0.0471324257	 0.152261
O	 3.366734198	-5.2730241282	-0.0518383035	-0.328657
H	 1.0844449246	 1.8169883169	 0.0027568661	 0.164559
H	-0.4614144339	 1.8401069533	-0.8672547103	 0.169273
H	-0.4456005688	 1.8300882719	 0.9005795633	 0.169273
H	 1.8785956539	-2.9853062959	-0.9135200016	 0.153769
H	 1.90050051	-2.9967625404	 0.835962343	 0.154084
H	 0.1957655549	-5.0934612632	-0.031818503	 0.264734
H	 1.8787287279	-6.6762112616	-0.0481422593	 0.079278
13.6171	16.1996	65.205	74.6692	162.4593	173.11	270.9274	301.863	313.6107	382.5959	427.7355	562.1361	575.0364	582.645	732.8088	861.1557	978.029	991.979	1036.3055	1043.3809	1053.8087	1074.4862	1199.7541	1223.3755	1236.5964	1359.2784	1408.779	1423.7197	1467.9126	1471.0622	1474.976	1516.0447	1752.0485	1801.4906	2342.5546	2944.2402	3018.5553	3034.6719	3038.7755	3099.2167	3104.8296	3601.5393
CC#CC(=O)CNC=O	CC#CC(=O)CNC=O	
InChI=1S/C6H7NO2/c1-2-3-6(9)4-7-5-8/h5H,4H2,1H3,(H,7,8)	InChI=1S/C6H7NO2/c1-2-3-6(9)4-7-5-8/h5H,4H2,1H3,(H,7,8)
