20
gdb 117395	6.92897	0.55921	0.5241	0.6417	82.38	-0.2603	-0.0161	0.2442	2149.7801	0.167611	-440.328116	-440.317345	-440.316401	-440.365456	36.543	
C	 0.0327055254	 1.6106529438	-0.1844321787	-0.387095
C	 0.0337381499	 0.0893462535	-0.0185884305	-0.162227
C	 0.6404872	-0.6257521403	-1.2260671831	-0.315804
C	 0.6520692504	-2.1282965857	-1.0848745894	 0.457883
O	 0.2432925831	-2.7600957922	-0.1490665594	-0.335502
O	 1.2107058911	-2.6954104789	-2.2059093252	-0.226994
C	 1.3063509679	-4.0654083627	-2.2583527514	 0.112087
N	 1.8156225321	-4.5894809122	-3.2769206882	-0.192311
C	 1.9020903266	-6.0367384125	-3.3020496931	-0.318212
H	 1.0495327239	 1.9992384703	-0.309612024	 0.116684
H	-0.5473843567	 1.9161012948	-1.0623854984	 0.116684
H	-0.4050801294	 2.1004907208	 0.6901792419	 0.118721
H	 0.590822543	-0.1925762331	 0.8812339218	 0.115326
H	-0.987401019	-0.2747913703	 0.1369050223	 0.115331
H	 0.0996031622	-0.3839300739	-2.1499750101	 0.139003
H	 1.6734143273	-0.3020849851	-1.4075917986	 0.139013
H	 0.912963827	-4.5685252156	-1.3724030133	 0.131843
H	 1.5013637332	-6.527090586	-2.4015383536	 0.10597
H	 1.3605096524	-6.4147488679	-4.1759649872	 0.1348
H	 2.9496096598	-6.3328680768	-3.4242460017	 0.1348
40.66	63.029	87.7484	95.5827	118.2681	203.6414	214.642	241.8233	312.1012	331.7153	356.1069	393.6672	571.7744	577.0526	722.0436	748.0077	883.3983	901.1732	943.2339	993.0771	1051.3712	1063.8722	1093.678	1122.9212	1139.802	1141.8297	1170.2404	1188.1583	1249.9123	1322.4154	1324.4145	1369.2603	1403.6736	1415.9134	1447.1915	1453.6427	1481.0109	1489.3557	1500.1338	1501.3722	1509.3025	1777.7546	1838.0919	2983.5697	3030.5427	3033.4074	3050.5727	3059.0911	3070.0937	3079.7596	3088.0528	3103.0768	3108.1255	3112.4255
CCCC(=O)OC=NC	CCCC(=O)OC=NC	
InChI=1S/C6H11NO2/c1-3-4-6(8)9-5-7-2/h5H,3-4H2,1-2H3	InChI=1S/C6H11NO2/c1-3-4-6(8)9-5-7-2/h5H,3-4H2,1-2H3
