15
gdb 69620	3.79194	1.18486	1.15493	5.3121	71.34	-0.2436	-0.0136	0.2301	1096.9903	0.111129	-416.716389	-416.708655	-416.707711	-416.748501	29.545	
C	-0.1271648088	 1.5488687037	 0.0333588148	-0.513218
C	 0.0700350774	 0.0676389948	 0.0266196286	 0.304966
N	-0.8036092889	-0.902207433	 0.7227307402	-0.341397
C	 0.6441808956	-0.8695311497	 1.0181909	-0.231738
C	 1.3690461448	-1.6584380091	-0.1373144427	 0.354065
O	 0.4035122618	-2.1010529714	-1.092745827	-0.238595
C	 0.7880841121	-0.7359510502	-1.1297037096	-0.10015
C	 2.6446220686	-2.2898929679	-0.0637215818	 0.202801
N	 3.6884672305	-2.7763737799	 0.0460821926	-0.337134
H	 0.7789066351	 2.0681023237	-0.2973211633	 0.136774
H	-0.9449619767	 1.8416869614	-0.6348101246	 0.141266
H	-0.3671792181	 1.9057053657	 1.040180103	 0.129676
H	-1.2677629691	-0.3969594728	 1.4785642144	 0.23801
H	 1.0490805495	-0.7025185938	 2.0068909318	 0.118839
H	 1.2073169761	-0.3405191716	-2.0474887864	 0.135836
113.3089	152.2057	203.1256	257.2118	289.8812	409.236	441.2551	483.2324	541.5644	563.7562	597.1176	701.6592	788.4715	805.1686	851.2504	878.8332	913.667	939.8937	981.9462	1004.5729	1050.6326	1094.7521	1106.1663	1123.6201	1210.272	1259.4387	1316.1661	1402.2954	1418.2735	1447.3275	1481.6454	1496.5176	2353.7022	3027.9881	3091.9124	3102.4762	3195.0238	3216.6448	3467.5705
CC12NC1C1(OC21)C#N	C[C@]12N[C@H]1[C@]1(O[C@@H]21)C#N	
InChI=1S/C6H6N2O/c1-5-3(8-5)6(2-7)4(5)9-6/h3-4,8H,1H3	InChI=1S/C6H6N2O/c1-5-3(8-5)6(2-7)4(5)9-6/h3-4,8H,1H3/t3-,4+,5+,6-/m1/s1
