20
gdb 117409	4.08023	0.6256	0.5846	3.0572	83.83	-0.2464	0.0247	0.2711	1954.8066	0.16827	-403.153129	-403.142294	-403.141349	-403.191274	37.68	
C	 0.3019097861	 1.502520503	-0.0639146072	-0.386111
C	 0.5274748985	-0.0096888771	-0.0148018929	-0.150633
C	 0.2432068436	-0.6077284358	 1.367733207	-0.302668
C	 0.3189475674	-2.1313076723	 1.3600942666	 0.425784
O	-0.0765877023	-2.8036331259	 0.4234422241	-0.377483
N	 0.8371151558	-2.6903733191	 2.4953378761	-0.323467
C	 0.996293565	-4.1307394128	 2.6371947779	-0.288679
C	 2.3348658703	-4.4986987802	 3.0880979271	 0.283313
C	 3.4308118644	-4.788697602	 3.4860412211	-0.44414
H	 0.9494847647	 2.0297424604	 0.6460153495	 0.110848
H	 0.512431753	 1.8995457216	-1.0616200391	 0.116323
H	-0.7347920856	 1.7575356855	 0.1835659517	 0.114569
H	-0.1113476311	-0.5195751082	-0.741584256	 0.129349
H	 1.5604472134	-0.2416145121	-0.3015326174	 0.102127
H	 0.9191539162	-0.1864914732	 2.1220523114	 0.09299
H	-0.7754787914	-0.3391271119	 1.6796255887	 0.128142
H	 1.2048794209	-2.0983426824	 3.2213345378	 0.250559
H	 0.2497306061	-4.5388501525	 3.3326996872	 0.137821
H	 0.7788208875	-4.5548205626	 1.6515290553	 0.177961
H	 4.4019168873	-5.0569761924	 3.8218412611	 0.203395
21.8604	40.3181	65.1896	108.0628	146.9808	233.1532	246.365	278.183	321.9529	328.546	394.0591	439.0761	555.3742	617.7989	625.1409	668.0835	725.3958	754.55	879.376	894.9221	925.8111	956.9431	1039.3381	1055.4154	1069.8217	1113.2763	1131.5778	1215.3613	1254.8756	1257.5135	1305.6793	1341.2349	1374.7666	1396.5739	1413.9896	1465.4483	1486.2116	1492.3293	1499.937	1509.5878	1524.3304	1772.1172	2241.9145	3007.5031	3016.098	3027.1771	3037.0133	3055.1253	3080.4443	3083.6913	3102.6822	3105.7469	3505.4131	3652.721
CCCC(=O)NCC#C	CCCC(=O)NCC#C	
InChI=1S/C7H11NO/c1-3-5-7(9)8-6-4-2/h2H,3,5-6H2,1H3,(H,8,9)	InChI=1S/C7H11NO/c1-3-5-7(9)8-6-4-2/h2H,3,5-6H2,1H3,(H,8,9)
