17
gdb 43934	3.72127	1.49006	1.3091	2.5464	72.18	-0.2382	0.0091	0.2473	974.9859	0.139337	-417.947479	-417.941001	-417.940056	-417.978189	26.988	
O	-0.0995376907	-0.0177760337	-0.3150542312	-0.326354
C	-0.0637138933	 1.1535939985	-0.0828395734	 0.339559
N	-1.0880531781	 2.1219745844	 0.0599153308	-0.455209
C	-0.1734048267	 3.0364971726	 0.7454610273	 0.338843
C	 0.4126668708	 4.4706831458	 0.8206449705	-0.250554
N	 1.3515669167	 3.8313950792	 1.8618370589	-0.123395
C	 0.157223004	 2.9876547031	 2.2477627617	-0.217946
C	 2.1116259792	 2.7704575334	 1.0870684986	-0.223385
C	 1.0019592836	 2.2841476625	 0.1171181124	-0.141094
H	-2.0386342123	 1.9089977318	 0.3341576968	 0.24676
H	 0.8975219999	 4.888198459	-0.064554473	 0.113727
H	-0.1952851939	 5.2222399698	 1.3266021986	 0.116955
H	-0.5320785653	 3.558762014	 2.87436697	 0.107224
H	 0.3927350579	 2.0260725403	 2.7133189354	 0.112318
H	 2.9521193291	 3.2189686219	 0.554008048	 0.115562
H	 2.4981398021	 2.0353648233	 1.7947030112	 0.128557
H	 1.197236537	 2.6559387642	-0.8942573925	 0.118432
129.1608	252.5775	371.0715	427.7391	468.9546	496.9746	566.6933	588.425	649.1082	707.1795	758.592	793.8559	808.8358	833.6423	893.2892	942.2556	968.0179	995.4364	1013.518	1045.1026	1064.2858	1095.7518	1102.8222	1172.1667	1194.1683	1206.5771	1219.8486	1226.8106	1241.3686	1271.1806	1306.8285	1335.3562	1354.3518	1495.4373	1502.9399	1534.4022	1898.9936	3050.1157	3054.0245	3072.1064	3082.4182	3117.7474	3133.8696	3140.657	3577.0547
O=C1NC23CN(C2)CC13	O=C1N[C@@]23CN(C2)C[C@@H]13	
InChI=1S/C6H8N2O/c9-5-4-1-8-2-6(4,3-8)7-5/h4H,1-3H2,(H,7,9)	InChI=1S/C6H8N2O/c9-5-4-1-8-2-6(4,3-8)7-5/h4H,1-3H2,(H,7,9)/t4-/m0/s1
