17
gdb 82063	2.88508	1.51722	1.30145	1.1658	67.13	-0.2336	0.0579	0.2915	1013.6415	0.135393	-458.894624	-458.886894	-458.885949	-458.927134	29.542	
O	 0.3266199017	 1.4387410343	 0.1264122422	-0.431813
C	 0.1354398399	 0.0548090938	 0.0532473503	 0.053329
C	 0.2878581053	-0.7475012227	 1.3537222636	-0.027541
O	-0.7604883435	-0.2570034914	 2.2116349236	-0.26221
C	-1.0834060642	-1.2730270298	 1.2446389103	-0.060446
C	-1.3376732271	-0.5117841913	-0.0603979744	 0.406728
C	-2.5597281658	 0.3789172575	-0.3099401977	-0.357459
C	-2.7848173287	-0.5288596451	-1.5360285768	-0.080183
O	-1.5999109195	-1.3044145969	-1.2270706151	-0.328969
H	-0.0927787852	 1.7254559394	 0.9479886455	 0.291901
H	 0.7324489048	-0.3331341155	-0.7762187882	 0.109337
H	 1.1696279739	-1.1544155969	 1.8348861347	 0.111495
H	-1.5146692999	-2.2000533036	 1.6033545142	 0.114236
H	-3.3309171764	 0.3495765385	 0.4611240525	 0.118107
H	-2.3034705143	 1.415640697	-0.5355046431	 0.124174
H	-3.6880482637	-1.1489922194	-1.5131234601	 0.107254
H	-2.7062364373	-0.0440262778	-2.5149553116	 0.112059
88.0589	106.8724	199.9861	233.5473	301.0601	418.9281	450.6293	489.3113	582.227	639.8892	768.942	790.3668	853.6667	858.0848	868.1908	898.6702	912.35	967.0144	994.396	1014.6682	1042.1264	1085.2219	1114.8097	1148.9772	1166.9924	1170.7069	1206.9113	1214.5841	1236.1148	1262.0637	1289.1333	1316.5172	1351.5272	1369.0062	1429.8419	1485.5502	1529.4952	3029.6444	3074.1136	3081.0004	3093.6599	3137.9304	3183.9765	3200.2606	3773.6736
OC1C2OC2C11CCO1	O[C@H]1[C@H]2O[C@H]2[C@]21CCO2	
InChI=1S/C6H8O3/c7-4-3-5(9-3)6(4)1-2-8-6/h3-5,7H,1-2H2	InChI=1S/C6H8O3/c7-4-3-5(9-3)6(4)1-2-8-6/h3-5,7H,1-2H2/t3-,4+,5-,6-/m1/s1
