14
gdb 19505	3.53011	2.22141	1.92449	3.5417	62.31	-0.2455	-0.0443	0.2012	733.4741	0.107882	-378.699889	-378.693301	-378.692357	-378.730986	23.975	
O	-0.2056586331	 0.101353657	 0.3513702963	-0.242813
C	 0.0201549553	 1.1659887571	-0.164010129	 0.150656
C	 1.2478843329	 1.9978907963	 0.0146344907	-0.114432
C	 1.5032459131	 2.8634077636	 1.2163351205	-0.055041
C	 0.7935165938	 2.5955226686	 2.5447373914	-0.190889
N	 1.2138377309	 1.2425501427	 2.9422982822	-0.188945
C	 1.9719107883	 0.8004855741	 2.0275314814	 0.060141
N	 2.3468475946	 1.6799325825	 0.9488777591	-0.134991
H	-0.6990743731	 1.6257623048	-0.8798365145	 0.089214
H	 1.5962514907	 2.4043154728	-0.9353214012	 0.12026
H	 1.9593616309	 3.8327531542	 1.042024806	 0.112749
H	 1.1068130334	 3.3237640221	 3.3009546604	 0.127092
H	-0.3001905921	 2.6380427573	 2.4922742991	 0.12847
H	 2.4146008244	-0.1890853131	 2.0393671774	 0.138528
74.8639	178.025	191.8043	278.8483	430.2095	502.9203	710.6953	739.6545	755.7691	803.0728	860.0993	896.7298	949.2328	958.9295	968.1455	986.2901	1041.4926	1068.4356	1106.0954	1120.3855	1208.5828	1260.5387	1308.1112	1320.8594	1355.047	1389.5817	1422.0868	1484.6603	1688.7866	1822.8579	2872.5044	3041.8985	3072.9495	3108.902	3162.3729	3213.0833
O=CC1C2CN=CN12	O=C[C@H]1[C@H]2CN=CN12	
InChI=1S/C5H6N2O/c8-2-5-4-1-6-3-7(4)5/h2-5H,1H2	InChI=1S/C5H6N2O/c8-2-5-4-1-6-3-7(4)5/h2-5H,1H2/t4-,5+,7?/m1/s1
