16
gdb 44614	2.88853	2.08219	1.59217	4.629	65.94	-0.2606	0.0171	0.2777	852.9755	0.127949	-437.907414	-437.901255	-437.900311	-437.93791	25.136	
O	 0.1413281251	 0.3666768638	 0.7717616865	-0.35409
C	 0.0851397626	 1.366989167	 0.1254097024	 0.453902
O	-1.0550011318	 2.1190895297	 0.0059344054	-0.223321
C	-0.7398212386	 3.2837563161	-0.7291736885	 0.070857
C	 0.3772597823	 4.2104974459	-0.2618916202	-0.088689
C	 1.2298979888	 3.8642807156	 0.9636532134	-0.26268
C	 2.0438198882	 2.6264868838	 0.4861161534	-0.17808
N	 1.1729818746	 2.0073709026	-0.5541449749	-0.175925
C	 0.6200986872	 3.1312432948	-1.3063517044	-0.08073
H	-1.5943120705	 3.6783535077	-1.2623945101	 0.124317
H	 0.2700138718	 5.2467939354	-0.5614372332	 0.102869
H	 1.8704876291	 4.7042039926	 1.2442621349	 0.111458
H	 0.6153052198	 3.6146759476	 1.8348305071	 0.131182
H	 2.9811989217	 2.9303491177	 0.0134855435	 0.117531
H	 2.2589452246	 1.8953102357	 1.2666130372	 0.142676
H	 0.9182811651	 3.268876964	-2.3377310424	 0.108722
137.6002	218.9228	306.2319	487.6647	529.1919	595.2512	647.8686	738.8557	762.3393	769.2346	811.1794	811.9824	826.8324	882.69	917.7826	944.0208	993.2592	1033.8083	1048.8833	1066.033	1084.3577	1100.3667	1122.0053	1136.0701	1169.9296	1221.7845	1264.5571	1284.3172	1310.1187	1338.3577	1352.9654	1402.3601	1493.0906	1503.6752	1897.82	3054.6831	3072.3623	3101.7087	3140.5049	3180.1716	3190.5901	3211.7994
O=C1OC2C3CCN1C23	O=C1O[C@H]2[C@H]3CCN1[C@@H]23	
InChI=1S/C6H7NO2/c8-6-7-2-1-3-4(7)5(3)9-6/h3-5H,1-2H2	InChI=1S/C6H7NO2/c8-6-7-2-1-3-4(7)5(3)9-6/h3-5H,1-2H2/t3-,4+,5-/m0/s1
