15
gdb 11237	4.59152	1.45595	1.23498	0.9587	68.42	-0.2495	0.0179	0.2674	984.8598	0.118053	-362.650759	-362.642927	-362.641983	-362.683498	28.147	
C	-0.175301379	 1.4000107135	 0.157831287	-0.472057
C	 0.0083874414	-0.0662680386	-0.0316197754	 0.411901
N	-0.1747594193	-0.7216392706	-1.1028808578	-0.300785
C	 0.1190028906	-2.1233022931	-0.8035580996	-0.200731
C	 0.5270354999	-2.1339281336	 0.7094309226	-0.075577
O	 0.4187113407	-0.7357741442	 1.0872675236	-0.254078
C	-0.3180000243	-2.959677326	 1.5578410748	 0.330721
C	-1.0156850067	-3.66960444	 2.2307158228	-0.462816
H	 0.7623030799	 1.8599340495	 0.4851444782	 0.146213
H	-0.4995100425	 1.8523358221	-0.7785602845	 0.153418
H	-0.9200061324	 1.5889672919	 0.9371693803	 0.149045
H	-0.7600493464	-2.7473378209	-0.9880232635	 0.128641
H	 0.9292426426	-2.4895340964	-1.4417540042	 0.11977
H	 1.5753707354	-2.4203260606	 0.8432944094	 0.119765
H	-1.6305983099	-4.2922323131	 2.8327898163	 0.206571
44.6272	134.2722	163.2763	233.7108	248.9446	336.0841	484.9312	528.3007	602.0601	618.6201	670.341	679.4253	745.5844	834.5271	938.9977	964.5576	985.4982	1033.8369	1059.0309	1071.7883	1092.366	1205.4001	1246.2277	1305.8936	1333.1032	1374.6348	1415.9753	1474.9657	1476.2172	1501.8605	1749.1254	2240.2641	3045.9512	3052.2414	3054.3841	3092.0998	3110.1918	3167.5707	3502.5378
CC1=NCC(O1)C#C	CC1=NC[C@@H](O1)C#C	
InChI=1S/C6H7NO/c1-3-6-4-7-5(2)8-6/h1,6H,4H2,2H3	InChI=1S/C6H7NO/c1-3-6-4-7-5(2)8-6/h1,6H,4H2,2H3/t6-/m0/s1
