20
gdb 12647	3.26465	1.7469	1.28391	1.4049	76.84	-0.2393	0.0204	0.2597	1018.5179	0.176857	-349.027791	-349.019116	-349.018172	-349.06052	32.795	
C	-0.7665496666	 1.2196447887	 0.0403433828	-0.392515
C	 0.1347668049	-0.0122434204	 0.0377839334	 0.001519
C	 1.1776369802	-0.0689261502	-1.1093978764	-0.274412
C	 2.3437409566	-0.7864665016	-0.4762277958	-0.164755
C	 2.224507675	-0.9115383602	 0.8489202849	 0.293545
C	 3.1889611122	-1.5286446201	 1.8118626067	-0.497233
C	 0.9675204302	-0.2146509947	 1.3371483258	 0.034661
O	 1.2939912048	 0.9909532942	 2.0380520929	-0.430654
H	-0.184324029	 2.1366807943	 0.1707820208	 0.1097
H	-1.3190354975	 1.2994700447	-0.9018177277	 0.106894
H	-1.4945940816	 1.1789687883	 0.8566047256	 0.116564
H	-0.4929345832	-0.9068593449	-0.0583770828	 0.077169
H	 0.7883684422	-0.5876620867	-1.9933356045	 0.103398
H	 1.4671506737	 0.9350878326	-1.4541804587	 0.098226
H	 3.192656266	-1.1430244425	-1.0524157101	 0.086429
H	 4.1014223073	-1.8692594913	 1.3147661894	 0.118864
H	 3.464102078	-0.8101057501	 2.5925472826	 0.1346
H	 2.739355147	-2.3886052019	 2.3248241329	 0.125461
H	 0.4100820612	-0.8004197611	 2.0766398898	 0.07752
H	 1.9297336486	 1.4724145129	 1.4966143885	 0.275018
77.8251	174.4091	204.343	221.785	251.0938	272.1448	285.9571	353.7357	389.9647	489.4919	575.4029	633.4179	679.8055	815.3124	830.1437	893.0895	904.4826	938.9177	989.3724	995.3962	1033.4975	1060.7213	1075.6496	1116.6987	1150.8769	1168.0194	1211.0027	1248.0258	1282.2102	1306.3703	1324.7725	1349.9793	1369.7862	1408.245	1412.5479	1430.7539	1476.7732	1489.4044	1491.7462	1493.8011	1496.7434	1718.4274	2996.1068	3020.5284	3021.7676	3035.7174	3047.2473	3054.2921	3072.3233	3101.2138	3109.2815	3110.8741	3173.2256	3796.7409
CC1CC=C(C)C1O	C[C@H]1CC=C(C)[C@H]1O	
InChI=1S/C7H12O/c1-5-3-4-6(2)7(5)8/h3,6-8H,4H2,1-2H3	InChI=1S/C7H12O/c1-5-3-4-6(2)7(5)8/h3,6-8H,4H2,1-2H3/t6-,7+/m0/s1
