15
gdb 48760	4.25975	1.1429	1.00277	2.1358	66.34	-0.2604	-0.0517	0.2086	1134.3963	0.110708	-457.781019	-457.773205	-457.772261	-457.814001	28.632	
O	-0.4079429309	 0.5942619322	-0.9176476808	-0.244529
C	-0.0134803238	 1.2369337666	 0.0193117645	 0.076649
C	 1.2830317188	 1.9827460779	 0.0367744707	 0.306377
C	 1.9073722013	 2.4897179848	 1.3152464618	-0.423463
C	 2.7770595356	 3.6894174051	 0.8850557014	 0.401206
O	 3.5438453225	 4.2747615545	 1.5971771685	-0.287669
C	 2.4943411918	 4.0278999414	-0.5926592238	-0.358067
C	 1.6431974636	 2.8907335873	-1.0955523743	 0.001718
O	 2.2481765621	 1.6147980716	-0.9529085204	-0.272258
H	-0.610970118	 1.3424456271	 0.9527972789	 0.080174
H	 1.1526608496	 2.8305555625	 2.0349411661	 0.139797
H	 2.5285753732	 1.7431698016	 1.8178160442	 0.155914
H	 1.9688492414	 4.9884787881	-0.6512551881	 0.141527
H	 3.4356786329	 4.1325982801	-1.1394525526	 0.156678
H	 0.9813395498	 2.9993030192	-1.9503484759	 0.125945
63.9689	89.9913	204.1266	216.161	356.2191	387.8013	409.1929	477.4849	492.1863	656.3664	710.4673	753.2263	776.7768	806.7739	857.5621	916.2522	975.3465	1004.0812	1044.275	1084.1537	1128.5152	1144.6804	1183.0213	1224.163	1280.1058	1290.0745	1304.0182	1409.2762	1431.0244	1436.2865	1444.4338	1828.9011	1860.9446	2879.623	3045.9586	3051.9985	3103.3462	3104.4485	3161.7592
O=CC12CC(=O)CC1O2	O=C[C@]12CC(=O)C[C@H]1O2	
InChI=1S/C6H6O3/c7-3-6-2-4(8)1-5(6)9-6/h3,5H,1-2H2	InChI=1S/C6H6O3/c7-3-6-2-4(8)1-5(6)9-6/h3,5H,1-2H2/t5-,6-/m1/s1
