19
gdb 122032	3.39809	0.78176	0.65314	4.0739	79.18	-0.2231	-0.062	0.1611	1692.0534	0.15646	-456.338018	-456.327349	-456.326405	-456.374879	36.588	
C	-0.2344028488	 1.4682704712	 0.0257639147	-0.304898
N	-0.0947213049	 0.0229154521	 0.0337603708	-0.306766
C	 0.5531995384	-0.5997074364	-0.8743773819	 0.302202
N	 0.5954203943	-1.9775103155	-0.8950896633	-0.342982
C	 0.0954984673	-2.7483895368	 0.2252552447	-0.110485
C	 0.106640687	-4.2252621059	-0.1309038837	-0.100988
O	 1.4439710105	-4.5642527507	-0.4871264609	-0.423573
C	 1.3031797519	-0.0030808624	-2.0413871225	 0.104476
O	 1.411682493	 1.1747409397	-2.2650591285	-0.242119
H	 0.7276422542	 1.981961351	 0.1432036751	 0.126007
H	-0.6804008996	 1.850867465	-0.9001560812	 0.124671
H	-0.8784447702	 1.7528756743	 0.8630077063	 0.109191
H	 1.3717350803	-2.4134005869	-1.372076844	 0.249104
H	 0.6978845079	-2.574987999	 1.1297157927	 0.114993
H	-0.9209161125	-2.4180836942	 0.4560369733	 0.132402
H	-0.2395663346	-4.8109100377	 0.7329649631	 0.09904
H	-0.5813153968	-4.4083595681	-0.9693568811	 0.099641
H	 1.4507542992	-5.4598532127	-0.8362049719	 0.294452
H	 1.7759017734	-0.7588602671	-2.7130433616	 0.075632
46.3204	59.2414	98.0667	128.1753	168.6815	191.1197	237.6236	267.8279	279.529	303.4487	391.1793	448.222	489.8285	539.8883	561.2254	760.0416	847.8827	889.4828	918.0717	1006.527	1076.1632	1082.0401	1105.3945	1111.016	1126.1654	1165.9504	1220.8849	1261.9655	1280.2316	1301.0819	1378.1546	1435.2903	1444.0544	1457.4197	1479.0113	1499.6366	1499.971	1514.5352	1518.2326	1695.1894	1827.772	2844.1324	2988.8049	2996.7992	3011.3705	3029.9805	3065.6922	3089.8918	3096.709	3603.4634	3838.4918
CN=C(NCCO)C=O	CN=C(NCCO)C=O	
InChI=1S/C5H10N2O2/c1-6-5(4-9)7-2-3-8/h4,8H,2-3H2,1H3,(H,6,7)	InChI=1S/C5H10N2O2/c1-6-5(4-9)7-2-3-8/h4,8H,2-3H2,1H3,(H,6,7)
