16
gdb 37342	4.01659	1.70755	1.61789	2.5744	64.54	-0.2413	0.0673	0.3085	839.2889	0.127683	-437.822105	-437.816432	-437.815488	-437.851835	24.631	
N	-0.0208024729	 1.503820774	-0.0281368489	-0.276045
C	 1.4376134782	 1.7176510298	-0.0063553899	-0.130381
C	 1.900838321	 0.8472218388	 1.1974920438	 0.041102
O	 0.9139045541	 0.7235777917	 2.2329952659	-0.258665
C	 0.9566477277	-0.2737756241	 1.2009813037	 0.041102
C	 0.0164561009	 0.0303702818	-0.0011036905	-0.130382
C	 0.9206121718	-0.2514953765	-1.2204476893	 0.061881
O	 0.8836434407	 0.7351066333	-2.2513296661	-0.230383
C	 1.8653289851	 0.8701267125	-1.2239382421	 0.061881
H	-0.4008231641	 1.8266634154	 0.8584422163	 0.237175
H	 1.7252844702	 2.768644868	 0.001724598	 0.083724
H	 2.9370885522	 0.7728647503	 1.5117137561	 0.10426
H	 1.2070333183	-1.28115615	 1.5181095023	 0.10426
H	-0.970312475	-0.4317247429	 0.0116899274	 0.083724
H	 1.1680308288	-1.2647770358	-1.5203514239	 0.103374
H	 2.9049956128	 0.797449704	-1.5267729127	 0.103374
291.3567	347.7069	358.8184	473.2231	504.7231	645.6097	650.0259	802.5092	812.3596	828.8095	838.7976	870.3812	873.3867	895.6033	902.1326	934.7331	937.6844	967.5276	1001.3239	1059.2845	1059.7592	1066.6374	1082.7249	1109.5644	1207.6938	1208.5512	1229.8531	1257.7949	1266.2696	1274.3619	1296.8009	1331.7262	1380.3754	1426.7986	1427.9607	3121.8033	3123.5461	3159.1902	3163.1507	3169.8393	3176.9179	3509.072
N1C2C3OC3C1C1OC21	N1[C@H]2[C@H]3O[C@H]3[C@@H]1[C@H]1O[C@@H]21	
InChI=1S/C6H7NO2/c7-1-3-5(8-3)2(7)6-4(1)9-6/h1-7H	InChI=1S/C6H7NO2/c7-1-3-5(8-3)2(7)6-4(1)9-6/h1-7H/t1-,2+,3+,4-,5-,6+
