18
gdb 16768	3.98092	1.70444	1.58962	0.5568	67.18	-0.2397	0.0893	0.329	892.993	0.154683	-384.926336	-384.919007	-384.918063	-384.957861	28.046	
C	-0.512171264	 1.0872739085	-0.2647569173	-0.243115
O	-0.2452439684	-0.2993039598	-0.3796407601	-0.23481
C	 0.9046381935	-0.5876021921	-1.1364818644	 0.190669
C	 1.0988309405	-2.1170471515	-1.1444259544	-0.25707
C	 0.5313123177	-2.5508130277	-2.4863153811	-0.077081
C	-0.8601942019	-2.0526682936	-2.8440647029	-0.317685
C	 0.361406644	-1.2820086592	-3.2679515854	 0.110927
O	 0.7714809389	-0.1799045097	-2.4887118925	-0.259778
H	 0.3293376461	 1.6153301189	 0.209572081	 0.104442
H	-0.7039739686	 1.5429013551	-1.242727954	 0.127953
H	-1.3972321222	 1.1907748092	 0.3666213785	 0.124347
H	 1.7559271717	-0.0229340042	-0.7292092525	 0.074002
H	 2.1642954042	-2.3607671681	-1.0917592634	 0.107253
H	 0.6001133203	-2.5560892637	-0.2777121142	 0.120889
H	 0.9048585464	-3.4599714183	-2.941723489	 0.088871
H	-1.3936447178	-2.5982182216	-3.6157409489	 0.106983
H	-1.4766361851	-1.6363760434	-2.0564404302	 0.13501
H	 0.6260057746	-1.1585678888	-4.3110980393	 0.098191
106.9882	150.8736	194.7917	252.9856	321.0465	420.4844	433.7792	556.6936	684.088	758.1415	776.7992	810.8521	840.5442	906.5333	941.0374	988.019	995.3889	1022.3038	1048.3269	1075.8272	1101.3168	1106.4803	1117.2297	1163.1601	1181.6661	1197.5484	1208.0563	1236.0717	1302.8911	1311.9223	1373.2777	1387.4064	1404.5334	1468.0918	1476.3552	1483.3784	1486.6275	1514.9195	2988.9291	3000.9727	3061.1664	3067.2907	3114.7765	3125.1829	3134.0758	3178.0029	3188.8916	3232.302
COC1CC2CC2O1	CO[C@H]1C[C@H]2C[C@H]2O1	
InChI=1S/C6H10O2/c1-7-6-3-4-2-5(4)8-6/h4-6H,2-3H2,1H3	InChI=1S/C6H10O2/c1-7-6-3-4-2-5(4)8-6/h4-6H,2-3H2,1H3/t4-,5-,6-/m1/s1
