21
gdb 104069	3.14955	1.03257	1.00164	2.2427	80.57	-0.2257	0.0335	0.2592	1321.49	0.181397	-424.243312	-424.233698	-424.232754	-424.277495	36.623	
C	 0.4301073058	 1.3732428589	 0.1508932203	-0.492982
C	 0.0357903809	-0.0630703786	 0.0149614343	 0.335079
C	 0.0988118092	-0.8236593382	-1.0809200624	-0.164715
C	-0.431564579	-2.2148650584	-0.8564167971	-0.320633
C	-0.5745992493	-2.3061144984	 0.6961156028	 0.43212
O	-1.7846845507	-2.9216147758	 1.1113999744	-0.492694
C	 0.596687623	-3.0857084282	 1.2992208572	-0.131472
O	 0.4659413027	-4.435343966	 0.8562026315	-0.43649
C	-0.5512411902	-0.8363631432	 1.175382613	-0.364794
H	 1.1943559868	 1.505711323	 0.9278895686	 0.120395
H	 0.8252036509	 1.7738890871	-0.7868247337	 0.121309
H	-0.425163707	 1.9924791954	 0.4514969286	 0.125142
H	 0.4595890435	-0.4808024514	-2.0458249756	 0.080195
H	-1.4209117071	-2.3496795484	-1.312435683	 0.108451
H	 0.2121256836	-3.0051726494	-1.2573870209	 0.108011
H	-1.6430969235	-3.8715321777	 1.0083620963	 0.281933
H	 1.5516597681	-2.6462092371	 0.9758239156	 0.095247
H	 0.5344856324	-3.0279672914	 2.3951213144	 0.093432
H	 1.0691683965	-4.9864332759	 1.3616626552	 0.293773
H	 0.0192615873	-0.7079940427	 2.1052766377	 0.089365
H	-1.577288794	-0.5148754536	 1.3971087028	 0.119325
59.2614	142.2004	167.0444	212.7834	235.4846	258.773	280.3322	353.023	359.3882	428.1208	440.649	471.5634	493.5682	630.4776	663.605	771.8977	827.4638	884.5386	906.0773	942.0991	963.6052	976.905	1035.2226	1037.8569	1057.0459	1095.0402	1111.1873	1140.8157	1163.7775	1194.7402	1219.1052	1271.8084	1283.2679	1294.0078	1311.2567	1357.3815	1408.2853	1414.9588	1443.6043	1477.9138	1480.6103	1489.5137	1494.3439	1508.3754	1724.9689	2987.9238	3010.4028	3015.3149	3024.0118	3032.3444	3044.125	3057.4258	3067.8812	3107.2518	3176.5598	3771.0692	3845.7081
CC1=CCC(O)(CO)C1	CC1=CC[C@@](O)(CO)C1	
InChI=1S/C7H12O2/c1-6-2-3-7(9,4-6)5-8/h2,8-9H,3-5H2,1H3	InChI=1S/C7H12O2/c1-6-2-3-7(9,4-6)5-8/h2,8-9H,3-5H2,1H3/t7-/m0/s1
