17
gdb 7779	3.68625	1.75352	1.25508	2.2109	66.16	-0.2622	0.0163	0.2785	960.6181	0.143364	-401.019411	-401.011933	-401.010989	-401.051212	28.057	
C	 0.003980752	 1.5335146978	 0.0646195136	-0.408006
C	 0.0292874588	 0.0163799928	 0.0254663696	 0.109903
C	 0.6613609665	-0.5531086365	-1.2492471683	-0.261133
C	 0.9217798704	-2.0378018212	-1.1422999293	 0.364508
N	 0.8646357846	-2.8006092607	-2.148974305	-0.50144
O	 1.322113547	-2.4844631781	 0.0896851363	-0.250811
C	 0.7741658456	-1.8204195731	 1.2342217328	 0.012155
O	 0.8011329255	-0.4391728683	 1.1416936259	-0.233871
H	 1.0203622837	 1.932668788	-0.0057924868	 0.13071
H	-0.5828659992	 1.9258856593	-0.7709741395	 0.124139
H	-0.4409327855	 1.8843604622	 0.9993566259	 0.128933
H	-0.9966944193	-0.376149094	 0.1305947256	 0.077626
H	 0.046510191	-0.3682661242	-2.1317717471	 0.131854
H	 1.6283561617	-0.0563290809	-1.4004841131	 0.131935
H	 1.1104873697	-3.7552006314	-1.8765981102	 0.219824
H	-0.2579335057	-2.1847073115	 1.3745167353	 0.09472
H	 1.3994327432	-2.1153787203	 2.0781854144	 0.128955
103.4414	133.0235	218.1228	273.5322	304.9909	413.3916	445.1404	487.3204	498.5978	589.3597	734.3237	823.2574	845.4074	913.0811	929.1175	938.0591	1003.7515	1056.2541	1091.5633	1114.2309	1140.9438	1167.1104	1205.7268	1238.4506	1298.725	1302.3607	1335.1283	1381.4523	1395.7707	1417.9066	1459.325	1459.9029	1483.6845	1498.8611	1518.3461	1756.8747	2955.6883	2962.0968	3037.0837	3045.3961	3119.3033	3122.704	3125.4605	3126.6799	3458.72
CC1CC(=N)OCO1	C[C@H]1C[C]([NH])OCO1	
InChI=1S/C5H9NO2/c1-4-2-5(6)8-3-7-4/h4,6H,2-3H2,1H3	InChI=1S/C5H9NO2/c1-4-2-5(6)8-3-7-4/h4,6H,2-3H2,1H3/t4-/m0/s1
