21
gdb 126139	3.68024	0.91318	0.88797	2.7815	84.79	-0.2301	0.0287	0.2588	1439.4469	0.183946	-383.304476	-383.295091	-383.294147	-383.339594	34.527	
C	-0.0010585583	 1.57115328	 0.1579076507	-0.392147
C	-0.0611267946	 0.0409626496	 0.1451611374	-0.164581
C	-1.4721659633	-0.542286398	-0.1100661162	-0.095881
C	-2.0182592997	-0.1862879424	-1.5064990376	-0.39373
C	-1.4942333033	-2.026651085	 0.1270645345	 0.397084
C	-2.1274653482	-2.7929209171	 1.0879664242	-0.327953
C	-1.7610660227	-4.1248862964	 0.799068989	-0.004516
N	-0.9603578387	-4.2008332752	-0.2587167858	-0.231425
N	-0.8139643867	-2.9160477292	-0.6462298966	-0.253985
H	 1.0050904013	 1.9161817948	 0.4149316753	 0.117324
H	-0.2564494946	 2.00355519	-0.8142080933	 0.119947
H	-0.6929440571	 1.9863205755	 0.8995121889	 0.117017
H	 0.6321766106	-0.3475111279	-0.6134121998	 0.087811
H	 0.2973243427	-0.3434160304	 1.1067186892	 0.108859
H	-2.1480050621	-0.1068959612	 0.6363746356	 0.088345
H	-2.1056606975	 0.8958562269	-1.634835647	 0.120901
H	-1.3598796417	-0.5606318307	-2.2992259696	 0.106851
H	-3.0073611434	-0.6262983226	-1.660219579	 0.127703
H	-2.7630972503	-2.4317083522	 1.8806354813	 0.097373
H	-2.0481894104	-5.0286496323	 1.3167449027	 0.107503
H	-0.2393275418	-2.7182415562	-1.4474093838	 0.267501
31.5338	87.6291	117.9015	186.2242	216.2956	269.5321	288.0994	345.2807	383.3572	471.2138	527.7975	683.3025	689.6939	729.3956	781.2592	801.8905	846.7573	891.0667	937.5999	959.4703	977.8805	1015.9826	1042.2996	1062.8631	1081.4673	1130.4958	1133.1093	1180.8988	1239.5865	1277.3892	1293.0868	1313.8182	1348.3928	1367.0797	1387.6805	1409.2405	1415.8605	1447.0642	1480.9431	1489.3016	1496.6842	1498.2516	1505.7243	1511.3395	1602.1672	3013.8144	3029.1414	3035.0002	3036.6326	3062.1682	3100.6314	3101.3295	3109.3475	3121.4516	3240.7276	3263.3404	3675.5877
CCC(C)C1=CC=NN1	CC[C@@H](C)c1ccn[nH]1	
InChI=1S/C7H12N2/c1-3-6(2)7-4-5-8-9-7/h4-6H,3H2,1-2H3,(H,8,9)	InChI=1S/C7H12N2/c1-3-6(2)7-4-5-8-9-7/h4-6H,3H2,1-2H3,(H,8,9)/t6-/m1/s1
