19
gdb 109446	2.37176	1.35778	0.95416	1.8501	76.09	-0.2422	-0.0287	0.2135	1258.5162	0.156823	-423.014781	-423.005724	-423.00478	-423.048993	33.492	
C	 0.1002318029	 1.5695648086	 0.1425490968	-0.38702
C	-0.0600504838	 0.0460771924	 0.0891431765	-0.20465
C	 0.6482624096	-0.5744707912	-1.1137956563	-0.182325
C	 2.1923249414	-0.6100259166	-1.1220836722	 0.397182
O	 3.0365671973	 0.1837273375	-0.8199374694	-0.297654
C	 2.2272518523	-2.0907821514	-1.5488792691	-0.443179
C	 0.7108884294	-2.105717157	-1.2979681394	 0.422518
C	-0.1053987907	-3.1471501588	-0.6755549813	-0.259189
O	-0.2103831221	-2.8409826315	-2.0758838371	-0.270744
H	 1.1575190468	 1.8452702265	 0.17257507	 0.149163
H	-0.3455877813	 2.042456534	-0.7394159681	 0.115406
H	-0.3908761463	 1.983438779	 1.0282242498	 0.113045
H	 0.3362478084	-0.4015745245	 1.008952646	 0.101094
H	-1.1238560936	-0.2197929138	 0.0472955249	 0.106429
H	 0.2933196927	-0.1123121255	-2.0464282635	 0.115632
H	 2.4829728214	-2.2136385438	-2.607110845	 0.146855
H	 2.8604464884	-2.7517638366	-0.9516766538	 0.136866
H	 0.3396386749	-4.1135254499	-0.4419050325	 0.119477
H	-0.9719908378	-2.8762502675	-0.0745426362	 0.121094
58.2837	101.8316	140.2438	182.2865	255.0231	268.0247	320.3511	361.8797	415.962	479.5146	518.6299	581.3746	726.28	774.9253	789.5616	837.9009	885.9892	911.0117	953.4859	984.4731	1017.0354	1047.6313	1074.8334	1123.8267	1137.0218	1147.019	1160.2299	1185.1397	1211.7377	1228.2955	1276.4891	1330.5131	1366.4568	1413.6836	1418.2343	1443.3776	1489.4644	1498.1212	1512.1607	1536.7817	1888.8175	3013.8225	3021.6791	3037.754	3054.4124	3057.1721	3083.371	3103.9846	3113.8188	3126.7374	3170.8452
CCC1C(=O)CC11CO1	CC[C@H]1C(=O)C[C@]21CO2	
InChI=1S/C7H10O2/c1-2-5-6(8)3-7(5)4-9-7/h5H,2-4H2,1H3	InChI=1S/C7H10O2/c1-2-5-6(8)3-7(5)4-9-7/h5H,2-4H2,1H3/t5-,7+/m0/s1
