21
gdb 83424	3.01331	1.21205	1.05884	1.8027	82.77	-0.2259	0.0746	0.3006	1241.9962	0.182299	-387.031298	-387.022586	-387.021642	-387.065027	33.472	
C	-0.007073839	 1.5290138993	-0.1326213418	-0.423355
C	 0.0867428506	 0.0291831365	 0.0392613418	-0.091339
C	 1.3687995423	-0.7403762968	-0.0965276124	 0.025563
O	 2.4810125193	 0.0315171652	 0.368242864	-0.285221
C	 1.9233616153	 0.051935127	 1.7081064211	-0.154875
C	 0.6673909745	-0.6940441549	 1.2514772591	 0.287627
C	-0.0856562046	-1.7104604844	 2.033149013	-0.108802
C	 0.5663921735	-2.5614516029	 3.0972438306	-0.276824
C	-0.4105518906	-1.4828340587	 3.4933542017	-0.268133
H	 0.9522823117	 2.0050970365	 0.0831217268	 0.136179
H	-0.27243345	 1.7805147343	-1.165026545	 0.11695
H	-0.7685138894	 1.9638085558	 0.5237218037	 0.114079
H	-0.7611305997	-0.528239231	-0.3578412975	 0.084124
H	 1.5726574211	-1.5383080197	-0.8026422272	 0.099102
H	 2.5586049693	-0.5277010632	 2.3875500694	 0.108896
H	 1.8036580666	 1.0694598679	 2.0986996321	 0.102785
H	-0.8637746097	-2.2047514337	 1.4576021039	 0.080565
H	 0.2541011937	-3.5966548596	 3.1797836375	 0.112646
H	 1.6161679844	-2.4001488912	 3.3162657597	 0.114127
H	-0.0109617392	-0.5908170919	 3.9647843039	 0.113065
H	-1.38990312	-1.7733702445	 3.8569736257	 0.11284
46.3724	138.4689	172.1784	186.6154	245.8589	276.5851	356.7608	366.649	496.5011	570.7364	628.1817	758.21	774.6234	786.0669	827.2628	869.226	911.0781	938.8504	946.3446	982.8238	1000.8075	1010.1998	1053.2689	1060.3995	1069.3722	1078.7405	1091.7561	1105.7199	1133.6003	1143.8662	1164.3998	1198.3019	1217.0151	1227.8599	1275.4493	1313.1973	1354.5482	1394.3448	1409.716	1469.2168	1475.9731	1493.713	1500.6732	1511.1458	1519.2012	3021.3811	3035.5874	3067.212	3092.1724	3114.1561	3130.0615	3130.5103	3135.3778	3139.4401	3169.5696	3208.5442	3224.2158
CC1C2OCC12C1CC1	C[C@H]1[C@H]2OC[C@@]12C1CC1	
InChI=1S/C8H12O/c1-5-7-8(5,4-9-7)6-2-3-6/h5-7H,2-4H2,1H3	InChI=1S/C8H12O/c1-5-7-8(5,4-9-7)6-2-3-6/h5-7H,2-4H2,1H3/t5-,7+,8-/m0/s1
