21
gdb 64386	2.28189	1.49844	1.15426	0.8953	83.75	-0.2448	0.0471	0.2918	1166.5547	0.180803	-387.074704	-387.065022	-387.064078	-387.10885	36.736	
C	 0.2716199454	 1.5104205174	-0.3101526893	-0.429494
C	 0.0390523384	 0.0257846558	 0.0019676257	 0.36903
C	-1.4431583061	-0.2670391428	 0.2041668934	-0.42873
O	 0.4925008004	-0.7923484724	-1.0808249336	-0.290938
C	 1.8939477734	-1.0253668467	-0.9618522521	-0.088322
C	 2.2868799719	-0.7217207365	 0.5027268549	-0.266483
C	 0.9178922631	-0.4872275069	 1.1868324025	-0.188848
C	 0.9606290973	 0.3644295312	 2.3627416191	 0.330594
C	 0.9929032879	 1.0679994962	 3.3377285825	-0.468926
H	 1.3324619101	 1.7314254537	-0.4604373272	 0.112936
H	-0.2619028326	 1.7755483619	-1.2271126275	 0.120006
H	-0.0894171782	 2.1435598124	 0.5042759372	 0.127821
H	-2.0190871436	 0.0502857953	-0.6698440501	 0.121801
H	-1.6031058865	-1.3392545523	 0.3480257431	 0.117586
H	-1.8214308748	 0.2675181309	 1.0804814818	 0.12451
H	 2.077635623	-2.0687192288	-1.2391917864	 0.106703
H	 2.4536918645	-0.3902889278	-1.6620494666	 0.097958
H	 2.8392223448	-1.5386281475	 0.971200145	 0.114709
H	 2.904211585	 0.1764726031	 0.5752894805	 0.11897
H	 0.5044279549	-1.4618190283	 1.4749555519	 0.104666
H	 1.0211531217	 1.687186322	 4.1998326351	 0.194453
79.3206	111.1851	138.8259	198.9569	219.1043	236.2716	292.1671	341.829	369.9771	437.2883	500.4868	534.2093	576.6119	627.6117	634.701	684.7676	734.8546	844.4243	852.5021	923.4315	946.7372	975.5603	1002.8808	1016.4404	1063.7563	1076.4783	1086.1993	1174.4119	1191.2645	1224.4836	1250.3879	1264.3608	1289.8364	1321.0536	1355.0316	1385.8196	1398.9237	1415.3006	1476.6782	1481.9299	1495.6758	1498.1565	1508.0092	1532.5016	2233.3875	3006.382	3025.3877	3041.1425	3046.99	3059.8051	3075.2756	3113.8852	3117.2306	3119.7594	3122.0319	3127.8005	3504.0046
CC1(C)OCCC1C#C	CC1(C)OCC[C@H]1C#C	
InChI=1S/C8H12O/c1-4-7-5-6-9-8(7,2)3/h1,7H,5-6H2,2-3H3	InChI=1S/C8H12O/c1-4-7-5-6-9-8(7,2)3/h1,7H,5-6H2,2-3H3/t7-/m1/s1
