16
gdb 70181	3.69813	1.35916	1.13618	4.6168	74.02	-0.2362	-0.0395	0.1967	1060.1874	0.124661	-437.876969	-437.869363	-437.868419	-437.908939	29.928	
O	-0.1375366356	 1.3574295082	 0.3834299553	-0.464044
C	 0.0184238412	 0.0190553177	 0.0136419545	 0.305509
C	-0.4513348734	-0.4256348468	-1.3722166955	-0.376113
C	-1.2367705616	-0.792641015	-0.1435997668	 0.082565
O	-1.3156596821	-2.1072357924	 0.32555068	-0.236812
C	-0.1960445635	-2.7918157118	 0.7021002382	 0.374052
N	-0.3458888031	-4.0417877194	 0.8873423904	-0.502957
C	 1.0373586954	-2.0192173159	 0.9124462862	-0.158862
C	 1.1401902514	-0.7167221865	 0.6295251451	-0.143232
H	 0.4359721716	 1.8933438146	-0.1760366932	 0.288344
H	-0.8845148186	 0.3374108246	-2.0105398998	 0.126572
H	 0.1254990319	-1.1946281318	-1.8736498165	 0.134612
H	-2.1783565052	-0.2832937725	 0.0207028892	 0.131521
H	 0.5315864794	-4.4498445946	 1.2051814008	 0.22036
H	 1.8678717459	-2.5683970906	 1.3425442033	 0.109226
H	 2.0463745164	-0.1591285476	 0.8506717389	 0.109258
80.7121	198.4362	254.1803	301.1926	343.6765	396.7854	425.1264	467.7993	509.1836	589.8463	685.3421	709.772	758.4014	786.6498	851.9092	866.2085	882.7522	931.4812	944.1284	981.0427	1008.2897	1036.4585	1068.8698	1109.4067	1174.4124	1201.5729	1250.3211	1287.8061	1331.0021	1369.1012	1416.527	1431.4003	1469.5151	1667.9411	1717.4114	3132.0868	3163.6377	3193.5281	3195.5579	3232.5194	3504.747	3792.9437
OC12CC1OC(=N)C=C2	O[C@]12C[C@H]1OC(=C[CH]2)[NH]	
InChI=1S/C6H7NO2/c7-5-1-2-6(8)3-4(6)9-5/h1-2,4,7-8H,3H2	InChI=1S/C6H7NO2/c7-5-1-2-6(8)3-4(6)9-5/h1-2,4,7-8H,3H2/t4-,6-/m1/s1
