15
gdb 123312	6.60836	1.05338	0.9192	3.6399	84.61	-0.2219	-0.0012	0.2207	1218.2407	0.113997	-379.624352	-379.616942	-379.615998	-379.656397	27.994	
C	 0.0300281397	-1.1802195854	-0.3090698335	-0.443425
C	-0.0022127941	 0.0064626423	-0.1094571567	 0.281641
C	 0.0056914396	 1.4037721013	 0.1266437107	 0.211627
N	-1.1561978621	 2.1014910602	 0.2171675511	-0.350929
N	-0.7024321311	 3.3318038023	 0.4354972224	 0.081241
C	-1.0458980622	 4.741914042	 0.6655287747	-0.16835
C	 0.5198654394	 4.9756467456	 0.7416477716	-0.378477
C	 0.6307472068	 3.4760488219	 0.4910925209	 0.394072
C	 1.1702758197	 2.2234733273	 0.292319486	-0.488888
H	 0.0450069177	-2.2269047255	-0.4854523952	 0.188111
H	-1.557016372	 5.2161259726	-0.1757217123	 0.140922
H	-1.5984154675	 4.9177268073	 1.5916148462	 0.140925
H	 0.9185155287	 5.6206094511	-0.044172708	 0.136792
H	 0.8774655697	 5.3241161617	 1.7127740046	 0.136793
H	 2.1953257578	 1.8972395752	 0.2612220175	 0.117945
83.8027	149.1085	163.4256	250.3672	420.6109	454.9636	520.4073	564.5388	578.1042	652.9502	661.6039	719.3064	792.8039	797.3512	816.5646	831.148	909.1192	1005.4667	1059.3019	1093.4857	1133.6466	1148.8999	1172.6016	1219.5491	1270.781	1307.1099	1353.7658	1437.1206	1472.838	1488.1773	1525.4949	1558.2852	2236.0836	3067.0865	3077.5511	3119.5725	3133.0207	3287.1087	3505.7082
C#CC1=NN2CCC2=C1	C#Cc1nn2CCc2c1	
InChI=1S/C7H6N2/c1-2-6-5-7-3-4-9(7)8-6/h1,5H,3-4H2	InChI=1S/C7H6N2/c1-2-6-5-7-3-4-9(7)8-6/h1,5H,3-4H2
