21
gdb 74755	2.7642	1.46964	1.28281	1.8881	83.37	-0.2223	0.0087	0.231	1118.0242	0.181068	-387.055518	-387.046665	-387.045721	-387.088257	35.001	
C	-0.090142993	 1.4756687809	 0.0381652646	-0.519372
C	-0.0552001678	-0.0098378746	-0.0319112248	 0.358172
C	-0.0590226242	-0.8743746775	-1.0529998606	-0.209531
C	 0.0115668846	-2.2211539536	-0.3230493079	-0.016073
O	-0.9511571046	-2.0025134548	 0.7628718404	-0.288643
C	 0.0161596842	-0.9818198025	 1.1651410906	-0.078594
C	 1.1620846204	-1.9872404766	 0.7402636707	 0.341101
C	 1.3237104016	-3.1529314448	 1.7182429878	-0.449808
C	 2.5297356484	-1.4738801606	 0.3051172388	-0.46983
H	 0.8005608062	 1.8727377758	 0.5422994699	 0.128587
H	-0.1404554942	 1.9229981726	-0.9585235718	 0.128474
H	-0.9558500705	 1.8274959607	 0.6135779217	 0.133749
H	-0.0868068334	-0.7021212841	-2.1192893022	 0.102843
H	-0.1227680369	-3.1560101898	-0.8681841279	 0.071534
H	-0.1115727989	-0.6073067391	 2.1824724538	 0.068046
H	 0.3557658795	-3.5333851006	 2.0447478269	 0.136776
H	 1.8831715931	-3.9711442114	 1.2500175269	 0.109399
H	 1.89352177	-2.8382198128	 2.6003394947	 0.108743
H	 3.1055214871	-1.1398326075	 1.1761005715	 0.113068
H	 3.1038645607	-2.2792719308	-0.1673284696	 0.114567
H	 2.4647863775	-0.6452951589	-0.4013406035	 0.116791
140.5187	168.8943	186.728	196.9039	239.069	297.5439	328.9174	378.6404	386.4503	514.6294	563.3615	587.1653	624.3141	685.6576	781.8915	797.1094	835.065	862.2584	903.2919	919.5769	945.2777	963.0257	1001.5437	1014.4512	1041.4684	1061.7764	1142.6849	1163.8977	1187.2622	1188.6916	1226.8539	1253.0361	1284.919	1293.0623	1303.3411	1394.1759	1413.3526	1414.0784	1478.3122	1481.6801	1485.6602	1492.5848	1500.372	1516.3674	1684.7884	3014.8837	3026.3395	3033.1187	3060.2459	3079.8344	3086.368	3106.2951	3107.4358	3118.9721	3133.3613	3146.6831	3235.2621
CC1=CC2OC1C2(C)C	CC1=C[C@@H]2O[C@H]1C2(C)C	
InChI=1S/C8H12O/c1-5-4-6-8(2,3)7(5)9-6/h4,6-7H,1-3H3	InChI=1S/C8H12O/c1-5-4-6-8(2,3)7(5)9-6/h4,6-7H,1-3H3/t6-,7+/m0/s1
