17
gdb 109142	4.41132	0.98243	0.81351	4.5005	72.75	-0.2036	0.019	0.2226	1343.7334	0.137288	-455.191342	-455.182343	-455.181399	-455.225997	32.055	
O	 0.0187170273	 1.4050630818	 0.0044654223	-0.415165
C	-0.0055875132	-0.0095955457	 0.0467961083	-0.151428
C	-1.4216500931	-0.4969553695	-0.0045511038	 0.199323
C	-2.4731401568	 0.3229599316	-0.020607912	-0.043507
N	-3.7793633135	-0.1518334507	-0.0817074486	-0.376198
C	-4.1081589638	-1.4899820954	 0.0658042027	 0.453859
O	-5.2609865818	-1.8771786413	 0.1177412513	-0.411342
N	-3.0246364017	-2.3243183012	 0.1772405751	-0.357563
C	-1.6292952781	-1.9867746703	-0.075741262	-0.242045
H	 0.9307616397	 1.6927417779	 0.0966552316	 0.292637
H	 0.5617862671	-0.4423994303	-0.7986379183	 0.091943
H	 0.4808546137	-0.3885336834	 0.9645877563	 0.094101
H	-2.3584088069	 1.398024675	 0.0040235473	 0.134967
H	-4.5613607607	 0.4796811961	-0.0543935674	 0.260072
H	-3.2828753642	-3.2972571363	 0.2142587845	 0.252577
H	-1.2983810383	-2.3718964361	-1.0581034425	 0.107658
H	-1.0006880357	-2.4946326421	 0.672115215	 0.110109
50.505	72.257	109.9709	195.6619	205.7842	263.4134	368.5866	423.6949	462.2528	474.6073	550.3567	559.0402	611.912	759.7616	779.8744	836.9863	887.0282	976.5501	1016.0902	1052.2761	1077.6563	1106.1311	1184.946	1202.1142	1231.3802	1242.3177	1255.1303	1287.1228	1378.8528	1426.4264	1458.0524	1470.6446	1494.5761	1518.9305	1536.0369	1769.4587	1815.3282	2916.1283	2924.3102	2932.0071	2978.7646	3232.3241	3646.1705	3674.8999	3845.9798
OCC1=CNC(=O)NC1	OCC1=CNC(=O)NC1	
InChI=1S/C5H8N2O2/c8-3-4-1-6-5(9)7-2-4/h1,8H,2-3H2,(H2,6,7,9)	InChI=1S/C5H8N2O2/c8-3-4-1-6-5(9)7-2-4/h1,8H,2-3H2,(H2,6,7,9)
