19
gdb 97144	4.60268	1.02322	0.92607	3.221	80.53	-0.2122	0.0629	0.2751	1320.5379	0.159751	-419.206393	-419.197615	-419.196671	-419.240333	32.53	
C	-0.3106300952	 1.3657015666	-0.1990277806	-0.328145
N	 0.0009808411	-0.0421392323	-0.0343530648	-0.375183
C	 0.8353894892	-0.5883668352	-0.802488964	 0.490365
N	 1.258910473	-1.9117176162	-0.7064768605	-0.412294
C	 1.868858014	-2.2988885086	-1.951894591	 0.354249
C	 2.612765458	-3.5804323859	-2.130042584	-0.334146
C	 1.2946205894	-3.357826809	-2.8579090221	-0.319161
C	 2.3740732487	-0.9570414531	-2.4570346188	-0.144046
O	 1.4941930293	 0.0000903409	-1.8548448072	-0.255019
H	-0.1247668349	 1.8939532358	 0.7440241055	 0.116148
H	 0.2595904204	 1.8651156722	-0.9913920002	 0.11732
H	-1.3790437034	 1.4829062466	-0.4190569631	 0.114898
H	 0.6112789161	-2.5333471624	-0.2465328989	 0.252325
H	 3.5306778151	-3.5688952156	-2.7096555975	 0.121576
H	 2.6228093138	-4.2781912555	-1.2992885718	 0.123788
H	 0.4269972192	-3.9086583565	-2.5088253636	 0.118648
H	 1.3186359798	-3.1947250206	-3.9307801391	 0.119671
H	 3.4005345209	-0.7602141978	-2.1221087873	 0.117572
H	 2.3210090456	-0.8509782734	-3.5432411411	 0.121433
60.6445	79.6977	155.5081	197.5105	230.8772	281.2861	323.2254	428.7965	469.2281	546.7068	580.9452	705.7549	717.792	765.6198	805.3795	895.6036	896.9543	935.3244	944.9075	995.2029	1049.4055	1055.9652	1074.5717	1083.9137	1091.7523	1138.9624	1157.4731	1185.6594	1218.0731	1259.3368	1298.5455	1327.4857	1396.6547	1446.5277	1446.767	1460.3276	1496.4456	1502.9685	1510.9488	1517.7964	1819.5817	3007.6615	3022.6079	3059.9135	3074.9046	3098.4188	3123.2477	3127.3916	3204.1262	3218.9461	3629.4197
CN=C1NC2(CC2)CO1	CN=C1NC2(CC2)CO1	
InChI=1S/C6H10N2O/c1-7-5-8-6(2-3-6)4-9-5/h2-4H2,1H3,(H,7,8)	InChI=1S/C6H10N2O/c1-7-5-8-6(2-3-6)4-9-5/h2-4H2,1H3,(H,7,8)
