18
gdb 115762	3.76936	0.85861	0.74171	5.4955	72.8	-0.2626	0.028	0.2906	1481.3161	0.146845	-439.068349	-439.058904	-439.05796	-439.103952	32.797	
O	-0.148267588	 1.5142133284	-0.26282212	-0.423578
C	 0.0189536914	 0.1624174456	 0.1322016904	-0.095644
C	-1.3528518293	-0.4832719185	 0.0438573065	-0.05539
C	-1.8570236189	-0.7518055001	-1.3894802696	-0.072516
O	-1.7445879898	-2.183270264	-1.2039097004	-0.284015
C	-1.458318678	-2.0237421498	 0.1947202278	 0.124105
C	-0.2296387256	-2.8303376317	 0.6359416824	-0.367093
C	-0.480862634	-4.2697201934	 0.6109287737	 0.270452
N	-0.6860144976	-5.4065365226	 0.6031439158	-0.298752
H	 0.7149772878	 1.9379794937	-0.2764306482	 0.292211
H	 0.7290188756	-0.3576731433	-0.5302149024	 0.093462
H	 0.4094626462	 0.0893023832	 1.1604226393	 0.090997
H	-2.0440873545	 0.0762609319	 0.6773478694	 0.095682
H	-2.8918665205	-0.4477717448	-1.5839373394	 0.110349
H	-1.2163843646	-0.3895392217	-2.2005174928	 0.115539
H	-2.3162362723	-2.3284189181	 0.809578534	 0.096607
H	 0.6198457403	-2.6114368366	-0.017875794	 0.154889
H	 0.0498543918	-2.5443921981	 1.6570369374	 0.152695
54.1774	62.3258	100.6646	109.7364	186.8015	260.113	282.0994	365.8785	391.0696	415.5843	498.2986	540.4547	801.6017	841.5928	877.9041	900.7661	934.9607	959.884	1008.872	1053.3856	1067.7809	1090.869	1133.8053	1146.4044	1171.8119	1210.0803	1233.6263	1262.4017	1280.4301	1291.5028	1311.8854	1359.0806	1377.6707	1400.7841	1452.6371	1463.2333	1519.1334	1531.0179	2365.8133	2962.0649	2992.322	3007.7798	3030.4358	3046.6311	3076.4958	3095.2774	3099.5697	3830.6867
OCC1COC1CC#N	OC[C@H]1CO[C@H]1CC#N	
InChI=1S/C6H9NO2/c7-2-1-6-5(3-8)4-9-6/h5-6,8H,1,3-4H2	InChI=1S/C6H9NO2/c7-2-1-6-5(3-8)4-9-6/h5-6,8H,1,3-4H2/t5-,6-/m0/s1
