16
gdb 54400	3.44174	1.47399	1.2552	9.5141	69.98	-0.2027	-0.0471	0.1556	993.3684	0.125678	-437.838903	-437.831773	-437.830829	-437.870705	27.959	
O	-0.3218088359	-0.0037093398	-0.4473929658	-0.503918
C	 0.0202658614	 1.1326997559	-0.028960297	 0.309609
O	 1.0882016319	 1.6428860335	 0.2964762479	-0.444884
C	-1.2287783355	 2.0595712058	 0.0387521664	 0.157451
C	-1.9065806598	 2.6130388919	-1.2668997301	-0.226453
C	-3.1836162706	 2.4395069539	-0.3898420874	-0.085561
N	-2.5162565598	 1.1751583868	 0.1543167725	-0.236648
H	-2.251104403	 0.3677975156	-0.4475399038	 0.294126
H	-2.7692748361	 0.874576291	 1.0951680465	 0.278611
C	-2.8805302164	 3.3971277756	 0.7743194535	-0.100908
C	-1.5895181085	 3.1521258407	 1.036069943	-0.122641
H	-1.6499317052	 3.6294330421	-1.5523828133	 0.140559
H	-1.8352350664	 1.9185038838	-2.1078217307	 0.141267
H	-4.1964868711	 2.3359097562	-0.7753030735	 0.110968
H	-3.5833271942	 4.0825158232	 1.2253957887	 0.131921
H	-0.904517871	 3.5833629238	 1.749640843	 0.156505
87.3286	140.2688	196.2348	356.2279	443.4988	502.4176	523.488	561.4511	682.405	708.3416	728.7009	750.3411	795.8451	849.4021	873.2089	900.5014	928.7098	935.8937	981.9506	1008.2455	1017.9438	1046.4134	1098.2155	1134.606	1167.4909	1205.7724	1226.7727	1245.3127	1274.88	1308.2522	1332.4407	1496.1763	1595.4106	1649.8162	1799.7208	3084.1314	3140.3951	3186.7685	3191.472	3236.8246	3270.4535	3502.4842
[O-]C(=O)C12CC([NH2+]1)C=C2	O=C([O])[C@@]12C[C@@H]([NH2]1)C=C2	
InChI=1S/C6H7NO2/c8-5(9)6-2-1-4(3-6)7-6/h1-2,4,7H,3H2,(H,8,9)	InChI=1S/C6H7NO2/c8-5(9)6-2-1-4(3-6)7-6/h1-2,4H,3,7H2/t4-,6+/m0/s1
