23
gdb 85942	2.42428	1.35501	1.16173	1.358	81.38	-0.2444	0.0685	0.3128	1221.6136	0.20418	-425.450315	-425.440379	-425.439435	-425.484465	38.509	
C	-0.0939084049	 1.5302920266	-0.0302653572	-0.401799
C	 0.0571528687	 0.0258930916	 0.096510474	 0.094928
O	 0.7953611404	-0.4785049391	-1.0182458176	-0.317211
C	 1.2011541255	-1.8382770445	-0.7247368704	 0.398578
C	 0.2168877734	-2.8059674811	-1.3909874806	-0.422531
C	 2.6074431771	-2.0140320793	-1.2976177281	-0.425094
C	 1.1595566868	-1.9373383804	 0.8318317967	-0.312495
C	 0.8756470586	-0.4951145513	 1.2895760789	 0.134701
O	 2.0648773643	 0.256008182	 1.4843291286	-0.441363
H	 0.8767540149	 2.0287034276	 0.0197866592	 0.120319
H	-0.5702803901	 1.7830095649	-0.981136325	 0.123931
H	-0.717004226	 1.9153164101	 0.7826734169	 0.117589
H	-0.9437957131	-0.4388042948	 0.1291508471	 0.060648
H	 0.2301388052	-2.679974703	-2.4776971315	 0.119421
H	 0.4765322259	-3.8444857815	-1.1594710927	 0.112982
H	-0.80407612	-2.628130751	-1.0390163122	 0.114268
H	 3.3223058216	-1.3598380755	-0.7894172136	 0.108374
H	 2.9487930003	-3.0467557164	-1.1754313812	 0.116041
H	 2.6162847998	-1.7709417856	-2.3642456896	 0.123641
H	 0.3566292648	-2.6062523373	 1.1568733107	 0.09843
H	 2.0964209324	-2.3020070545	 1.2581281842	 0.110911
H	 0.330775303	-0.4492348123	 2.2361178448	 0.080431
H	 2.4614256613	 0.3788780946	 0.6134310687	 0.285302
73.9954	117.8091	192.4976	225.3637	245.4059	260.5493	289.3401	300.9908	340.9688	392.1501	415.6075	452.7264	463.4647	540.7516	629.4798	721.2669	783.9037	845.826	858.0725	882.7327	926.9314	941.5801	976.2019	999.2971	1003.1162	1026.8527	1080.1839	1100.9404	1146.0808	1162.498	1177.9506	1245.6037	1262.2014	1281.2531	1297.8948	1318.3791	1361.4925	1390.6708	1399.4159	1414.346	1417.5865	1431.7898	1477.0641	1482.6614	1484.4696	1489.1988	1492.2005	1498.0838	1503.3381	2946.9248	3031.7435	3038.1846	3049.7846	3055.2753	3085.6311	3102.408	3108.634	3110.0484	3115.0009	3117.1893	3120.1329	3132.865	3788.8237
CC1OC(C)(C)CC1O	C[C@H]1OC(C)(C)C[C@H]1O	
InChI=1S/C7H14O2/c1-5-6(8)4-7(2,3)9-5/h5-6,8H,4H2,1-3H3	InChI=1S/C7H14O2/c1-5-6(8)4-7(2,3)9-5/h5-6,8H,4H2,1-3H3/t5-,6-/m1/s1
