17
gdb 56461	2.30155	1.02003	0.94366	2.1982	75.95	-0.2512	-0.0448	0.2063	1339.4331	0.131154	-421.817311	-421.807084	-421.80614	-421.85431	35.197	
C	-0.7304908379	 0.9589739927	 1.5571924831	-0.408557
C	-0.0906777351	 0.5293837869	 0.2130983368	-0.242644
C	 0.8686304376	-0.5551803712	 0.3865151669	 0.316298
C	 1.6484522822	-1.4590406664	 0.5288073391	-0.465727
C	-1.2082745817	 0.1517417743	-0.7784117762	 0.380807
O	-1.5485904593	 0.9098319348	-1.6532789952	-0.310641
C	-1.9257930695	-1.1798050921	-0.5680257372	-0.376909
C	-3.4237105677	-0.9551725108	-0.4068719274	 0.161255
O	-4.0850132634	-1.460573534	 0.4598868917	-0.232301
H	 0.0507630081	 1.2599883547	 2.2587160085	 0.142962
H	-1.4051970879	 1.8043444443	 1.3973951834	 0.138083
H	-1.2935868113	 0.137779309	 2.0089104954	 0.145308
H	 0.4090687259	 1.3964668085	-0.231685667	 0.13331
H	 2.3470540756	-2.2497703239	 0.651624985	 0.206905
H	-1.7840288769	-1.7583198255	-1.4906156224	 0.161148
H	-1.5388108901	-1.7576291292	 0.2713133834	 0.141621
H	-3.8600131184	-0.2722194622	-1.1647446879	 0.109082
22.8407	49.6142	98.5879	123.9363	194.7704	215.5157	221.006	249.1743	346.7817	455.5278	489.341	527.2991	562.9038	637.2525	651.4993	688.7407	754.5463	841.7214	886.8466	954.0536	1007.1711	1055.7053	1078.9374	1101.1867	1152.2485	1195.3811	1279.296	1296.6997	1327.0095	1404.2784	1407.4359	1447.2187	1493.4426	1496.9513	1800.409	1840.8844	2234.1625	2927.7998	3039.1385	3048.743	3058.4045	3128.0921	3132.7084	3143.1761	3501.4391
CC(C#C)C(=O)CC=O	C[C@@H](C#C)C(=O)CC=O	
InChI=1S/C7H8O2/c1-3-6(2)7(9)4-5-8/h1,5-6H,4H2,2H3	InChI=1S/C7H8O2/c1-3-6(2)7(9)4-5-8/h1,5-6H,4H2,2H3/t6-/m0/s1
