14
gdb 133785	4.57655	0.55771	0.54841	3.6756	60.62	-0.2744	-0.0053	0.2691	1947.0059	0.094812	-568.136947	-568.127426	-568.126482	-568.173885	31.497	
C	 0.0166960922	 1.4068571089	 0.0212318093	-0.222804
O	 0.0216962996	-0.004238706	 0.0578232802	-0.22711
C	 0.5952051729	-0.5618667586	-1.1020718347	-0.20816
C	 0.5751235903	-2.0173097607	-1.0117506868	 0.063557
C	 0.5719171726	-3.2164578226	-0.964102351	-0.077218
C	 0.5649703768	-4.6751054428	-0.8997230043	 0.26167
F	 1.2983033985	-5.2044852104	-1.8892449693	-0.072057
F	 1.0704930492	-5.1159062411	 0.2595779116	-0.06836
F	-0.6766907019	-5.1659041387	-1.0104839115	-0.069214
H	 1.0364339386	 1.8165003889	-0.0473097218	 0.111202
H	-0.5685455038	 1.7905571996	-0.8288515454	 0.111196
H	-0.4416990107	 1.7481004537	 0.9512563558	 0.139538
H	 0.0455746688	-0.2476540822	-2.0065764925	 0.12887
H	 1.637435097	-0.221561458	-1.2320837295	 0.12889
22.4049	68.2609	70.9894	121.0722	180.0138	229.926	315.3172	320.2297	404.2585	458.6184	467.7815	592.3089	612.7522	624.2738	780.8233	980.3202	1025.6583	1036.7055	1155.2599	1182.3464	1182.6948	1184.9823	1221.479	1254.8795	1292.6556	1411.7936	1477.8956	1485.5793	1492.8294	1515.0382	2396.8616	2951.2694	2970.9982	2976.5368	3023.1739	3129.8188
COCC#CC(F)(F)F	COCC#CC(F)(F)F	
InChI=1S/C5H5F3O/c1-9-4-2-3-5(6,7)8/h4H2,1H3	InChI=1S/C5H5F3O/c1-9-4-2-3-5(6,7)8/h4H2,1H3
