22
gdb 78451	2.72898	1.60177	1.27888	1.5184	85.66	-0.2136	0.0883	0.3019	1098.7981	0.196318	-367.146273	-367.138217	-367.137273	-367.178404	32.791	
C	-0.0570143977	 1.610394608	-0.0321857209	-0.433393
C	 0.0248339812	 0.0875401252	-0.1104394167	 0.016968
C	 0.4353963515	-0.8376656806	-1.2104392081	-0.060581
C	 1.5496950638	-0.5536786023	-2.2259611324	-0.064554
C	 2.6516363914	-1.4799860244	-1.5880239298	-0.2149
C	 2.5366142912	-0.4076296377	-0.4582336943	-0.009144
C	 2.3327948977	 0.6379148134	-1.6007149456	 0.04212
C	 3.5797956125	 1.1307783856	-2.3337741966	-0.439537
N	 1.1980467308	-0.8030419969	 0.0857555716	-0.137851
H	-0.1645106069	 2.0885329904	-1.0094345535	 0.133547
H	-0.9353500393	 1.8853572813	 0.5591286737	 0.114153
H	 0.8126673523	 2.0466014503	 0.4670833411	 0.135055
H	-0.7880499421	-0.356677263	 0.4643161178	 0.094784
H	-0.1752991327	-1.7202058823	-1.3971616809	 0.086602
H	 1.2903868901	-0.5911317588	-3.2847311473	 0.05929
H	 2.3533307349	-2.4931495011	-1.3105833384	 0.102529
H	 3.600410954	-1.4961956987	-2.1220441515	 0.096713
H	 3.2854299971	-0.2845587625	 0.3248998972	 0.065266
H	 1.7460542694	 1.5149903985	-1.3549759319	 0.063007
H	 4.259025988	 0.3364390392	-2.6497614808	 0.119024
H	 3.2937192397	 1.6933801592	-3.2296786366	 0.115229
H	 4.149189783	 1.8121909172	-1.6914851862	 0.115672
119.4567	173.6772	219.8487	232.7704	266.4526	314.6257	445.0864	504.2946	512.1312	644.7076	673.0705	706.0888	734.2025	807.8075	832.0342	858.1922	871.189	894.6649	961.1278	967.1514	1006.1915	1032.3828	1045.8785	1063.6162	1085.7198	1097.882	1102.1412	1114.6281	1126.2907	1136.8486	1162.4313	1220.1807	1243.8574	1252.9008	1257.7059	1279.713	1301.0859	1374.6643	1402.2019	1411.0548	1415.8387	1437.5573	1492.9849	1499.6149	1501.305	1508.5587	1518.1108	3032.2926	3041.3552	3081.6188	3085.4353	3085.5623	3101.5158	3108.0276	3109.8781	3113.1309	3115.6636	3118.5879	3155.4388	3195.0007
CC1C2C3CC(C3C)N12	C[C@H]1[C@H]2[C@@H]3C[C@@H]([C@H]3C)N12	
InChI=1S/C8H13N/c1-4-6-3-7(4)9-5(2)8(6)9/h4-8H,3H2,1-2H3	InChI=1S/C8H13N/c1-4-6-3-7(4)9-5(2)8(6)9/h4-8H,3H2,1-2H3/t4-,5-,6+,7-,8-,9?/m0/s1
