16
gdb 66304	2.41028	1.50735	1.24381	3.4062	66.88	-0.232	-0.0604	0.1717	1045.6283	0.123288	-475.036957	-475.028514	-475.02757	-475.070331	31.093	
O	 0.1746211589	 1.5078287493	 0.0874173647	-0.460993
C	-0.0259275918	 0.134809033	-0.0360657034	 0.211464
C	-1.5155777741	-0.2651344962	-0.2376320702	-0.246951
N	-1.5378841502	-1.4280806886	-1.12929089	-0.291934
C	-0.4399358919	-1.2510115406	-2.0797492653	-0.288247
C	 0.6240447325	-0.4133411992	-1.3635887981	 0.341438
O	 1.7366336083	-0.166108596	-1.729894816	-0.288859
C	 0.5743709089	-0.5916935087	 1.1445368115	 0.120486
O	 1.2538014304	-0.017469459	 1.9606824712	-0.270901
H	 0.8236258839	 1.619514448	 0.8007475642	 0.300171
H	-2.0388229966	-0.4866252833	 0.6951977456	 0.122204
H	-2.0155623099	 0.5893049155	-0.7073868856	 0.140891
H	-1.4068950629	-2.2812803343	-0.5983337792	 0.230756
H	-0.0319867396	-2.2003224836	-2.4350238863	 0.141231
H	-0.7767667671	-0.6898095184	-2.9629636317	 0.148953
H	 0.3579911313	-1.6767953275	 1.2234304386	 0.09029
63.3127	106.5598	187.5634	223.3662	282.6573	307.8315	348.225	422.3143	464.3153	529.4368	562.602	636.7179	671.493	764.3088	800.8628	846.2	926.9555	946.3333	1001.5905	1042.9906	1077.4946	1098.4107	1121.481	1172.9747	1236.3773	1288.3268	1309.2103	1356.0369	1380.0558	1429.5765	1460.6736	1463.0844	1494.8269	1792.1971	1867.7051	2921.5738	3015.1111	3049.7345	3107.4729	3111.1424	3539.0414	3689.2331
OC1(CNCC1=O)C=O	O[C@]1(CNCC1=O)C=O	
InChI=1S/C5H7NO3/c7-3-5(9)2-6-1-4(5)8/h3,6,9H,1-2H2	InChI=1S/C5H7NO3/c7-3-5(9)2-6-1-4(5)8/h3,6,9H,1-2H2/t5-/m1/s1
