17
gdb 8369	5.07644	1.33367	1.23192	2.8482	70.93	-0.2465	0.029	0.2755	1026.9304	0.141517	-363.851064	-363.843371	-363.842427	-363.883002	29.147	
C	 0.1652197446	 1.58593749	-0.2887430132	-0.408598
C	 0.0409399057	 0.0968881758	-0.0563561105	-0.074003
C	 1.2719294839	-0.8097056611	-0.0760261359	-0.361482
C	 0.5465900804	-0.5330933523	 1.193941505	 0.440436
C	 1.004248054	 0.0558525263	 2.5240272815	-0.440986
C	 0.1834260928	-1.0781901152	 3.1076216093	 0.427445
N	-0.0845636504	-1.4747172677	 4.2656156905	-0.54197
O	-0.2029844676	-1.5729355474	 1.874744008	-0.270454
H	 1.0787963992	 1.9831478357	 0.1662298871	 0.117994
H	 0.2038005413	 1.8148466433	-1.3589511236	 0.125854
H	-0.6839706954	 2.1289877419	 0.1399812907	 0.125355
H	-0.8611657909	-0.3619901131	-0.4533771605	 0.104962
H	 1.1647233558	-1.7986569453	-0.5079899511	 0.129853
H	 2.2471216926	-0.3528055632	-0.2171275671	 0.118533
H	 2.0736684794	-0.0006424976	 2.7351649314	 0.139523
H	 0.6336788467	 1.0549813939	 2.7618408818	 0.139552
H	-0.6880689822	-2.2984676239	 4.2444738865	 0.227987
87.9492	163.7811	190.8162	216.7511	317.0948	410.1589	443.1077	488.5641	503.6246	540.3475	778.1418	791.5424	857.2264	867.7448	888.8347	899.4817	963.5945	998.8147	1014.4718	1031.6783	1051.234	1099.9946	1119.4733	1158.5986	1165.7541	1184.8136	1218.4521	1293.7065	1345.1561	1411.2412	1423.8166	1464.2169	1489.7329	1493.0361	1509.6003	1830.8721	3029.7829	3081.5403	3095.3672	3097.1526	3125.9344	3134.5087	3146.2884	3217.5197	3477.2349
CC1CC11CC(=N)O1	C[C@H]1C[C@]21C[C]([NH])O2	
InChI=1S/C6H9NO/c1-4-2-6(4)3-5(7)8-6/h4,7H,2-3H2,1H3	InChI=1S/C6H9NO/c1-4-2-6(4)3-5(7)8-6/h4,7H,2-3H2,1H3/t4-,6+/m0/s1
