13
gdb 132301	2.06191	1.75382	0.94809	5.2431	67.23	-0.2147	-0.0332	0.1815	1107.3191	0.088603	-497.918482	-497.910961	-497.910017	-497.950426	28.808	
N	 0.0653471836	 1.3483082538	 0.1368280999	-0.555641
C	-0.062808137	-0.0033984954	 0.0491483778	 0.499071
C	-1.2498805407	-0.6893293187	 0.0267855131	-0.432008
C	-1.1537296459	-2.0934415303	-0.0090079902	 0.383654
F	-2.2964126136	-2.7714311492	-0.0291447727	-0.065037
C	 0.0264672803	-2.7760826458	-0.0252586998	-0.45621
C	 1.2634232337	-2.0645481984	-0.0090386211	 0.438956
O	 2.392498584	-2.4632956404	-0.0236832787	-0.341155
O	 1.1154283278	-0.6206644621	 0.0264711864	-0.264035
H	 0.9706466915	 1.7289268105	-0.0883006105	 0.277544
H	-0.7322821675	 1.9177440742	-0.0902897262	 0.273212
H	-2.2062879696	-0.1890620854	 0.0467038305	 0.112052
H	 0.0608992335	-3.8550880628	-0.0546046484	 0.129598
152.6903	180.9434	217.3093	314.6111	363.9552	383.9185	407.6504	461.4748	523.5044	579.271	614.5401	648.1035	685.3276	734.6942	756.7306	809.6816	811.9892	1002.8505	1031.9062	1078.2831	1141.193	1200.8544	1271.7234	1430.6161	1495.6687	1588.4849	1640.2753	1677.5093	1870.7842	3243.3043	3244.7459	3603.1052	3724.4509
NC1=CC(F)=CC(=O)O1	Nc1cc(F)cc(=O)o1	
InChI=1S/C5H4FNO2/c6-3-1-4(7)9-5(8)2-3/h1-2H,7H2	InChI=1S/C5H4FNO2/c6-3-1-4(7)9-5(8)2-3/h1-2H,7H2
