19
gdb 6719	4.41271	0.89772	0.7997	3.6886	69.1	-0.2487	0.0322	0.2808	1426.7324	0.163952	-402.228349	-402.218602	-402.217658	-402.263866	34.002	
C	-0.0682905663	 1.2893700567	-0.5064352146	-0.40622
C	 0.0005895114	-0.1044856594	 0.1150716177	 0.13828
O	 0.4867285513	-0.0506290824	 1.4585413761	-0.432461
C	-1.3394264508	-0.8453441947	 0.0395947115	-0.188172
C	-1.2409908933	-2.2765897536	 0.5825718467	-0.165007
N	-2.5153895243	-2.9830829879	 0.5869383488	-0.268128
C	-3.0453201367	-3.5311372978	-0.5353329678	 0.150256
O	-2.526946495	-3.4990880646	-1.6328889323	-0.328166
H	 0.8977990492	 1.793506997	-0.4171224743	 0.124886
H	-0.3387486181	 1.237247743	-1.565659304	 0.123768
H	-0.8244021555	 1.9037797235	-0.0007180651	 0.105092
H	 0.7575669465	-0.6937077774	-0.418359821	 0.095398
H	-0.0790057607	 0.5595919582	 1.9451315633	 0.274849
H	-2.0944908621	-0.2844591201	 0.609651007	 0.076888
H	-1.6851885502	-0.8854151211	-0.9984930069	 0.127345
H	-0.5440002923	-2.851385525	-0.0357138523	 0.134216
H	-0.8490181384	-2.2607419084	 1.6017773969	 0.118361
H	-3.0439302897	-3.0405920213	 1.441906834	 0.247211
H	-4.017108895	-4.0274696248	-0.3377349435	 0.071601
41.0694	60.7319	118.3826	145.0034	214.2075	241.1986	272.1818	301.8611	343.8295	400.3838	475.6756	487.5939	525.4432	732.0699	809.7514	862.591	936.7621	964.4777	982.8701	1031.0742	1043.7896	1083.8331	1119.7993	1162.5291	1197.3712	1240.0735	1288.4776	1313.6148	1345.8661	1379.1874	1401.3417	1408.7192	1421.7895	1428.7909	1472.3101	1486.8012	1494.1122	1496.0157	1526.8433	1801.4458	2928.1865	3004.9794	3022.3853	3035.5675	3060.8058	3081.7052	3095.6365	3119.353	3121.1991	3643.349	3793.7492
CC(O)CCNC=O	C[C@@H](O)CCNC=O	
InChI=1S/C5H11NO2/c1-5(8)2-3-6-4-7/h4-5,8H,2-3H2,1H3,(H,6,7)	InChI=1S/C5H11NO2/c1-5(8)2-3-6-4-7/h4-5,8H,2-3H2,1H3,(H,6,7)/t5-/m1/s1
