23
gdb 120959	4.38344	0.82525	0.77002	1.3113	86.03	-0.2332	0.0878	0.3211	1601.7427	0.206231	-388.289071	-388.279897	-388.278953	-388.323612	34.909	
C	-0.1259619932	 1.5485661785	 0.0892728392	-0.381802
C	-0.0412539203	 0.0204124726	 0.0686921321	-0.165636
C	 0.7268604593	-0.5512947484	 1.2654653964	-0.18443
C	 0.8112495963	-2.0704949198	 1.2685198927	 0.151631
C	 1.5798182232	-2.6938098844	 2.4573729236	-0.274881
C	 0.8290753393	-3.9992645866	 2.7149821079	-0.06533
C	-0.4990807776	-3.906051115	 3.4433964921	-0.302219
C	-0.4535305252	-3.8840220461	 1.9403910729	 0.102582
O	-0.5186623907	-2.6162062606	 1.3428299568	-0.27657
H	 0.8710285444	 2.0038249654	 0.0724765042	 0.109441
H	-0.6794245073	 1.9290813829	-0.7749464525	 0.110645
H	-0.6347260139	 1.9047371102	 0.9921542071	 0.11341
H	-1.0476393773	-0.4112410275	 0.0596411975	 0.118541
H	 0.4426154826	-0.3088772199	-0.8606079062	 0.09
H	 1.7498842444	-0.1509487017	 1.2773083241	 0.090737
H	 0.2508481859	-0.2291463	 2.2011838479	 0.09511
H	 1.272250051	-2.4120616917	 0.325918207	 0.06307
H	 2.6289431942	-2.8699801667	 2.204348447	 0.102703
H	 1.5571927294	-2.0288528504	 3.3286588568	 0.100496
H	 1.3831946257	-4.9290487633	 2.7589352679	 0.089303
H	-0.8674935157	-4.8023544792	 3.9322792971	 0.108005
H	-0.747441153	-2.9743437009	 3.9413153853	 0.114046
H	-0.8758211012	-4.6902575174	 1.3482526833	 0.091146
58.775	92.3974	101.5766	164.1216	247.4081	295.5433	313.0994	366.0799	442.0436	478.586	637.5692	702.686	741.9539	779.6923	808.5574	833.3751	874.0943	901.8859	921.087	949.7785	987.0323	1004.9857	1032.5061	1041.2066	1060.6107	1066.9898	1099.6877	1111.4369	1138.4699	1148.0925	1168.6752	1204.1084	1221.7234	1268.2182	1278.4836	1304.9647	1320.8802	1330.1607	1367.1211	1373.3126	1393.7687	1409.5987	1415.6688	1469.7477	1471.5324	1493.2094	1494.7284	1499.8377	1510.2822	2951.3086	3010.8404	3021.3461	3027.1229	3035.9635	3049.7856	3072.924	3091.8855	3097.1409	3100.3808	3123.1257	3150.3095	3180.1553	3215.5112
CCCC1CC2CC2O1	CCC[C@H]1C[C@H]2C[C@H]2O1	
InChI=1S/C8H14O/c1-2-3-7-4-6-5-8(6)9-7/h6-8H,2-5H2,1H3	InChI=1S/C8H14O/c1-2-3-7-4-6-5-8(6)9-7/h6-8H,2-5H2,1H3/t6-,7-,8+/m0/s1
