20
gdb 110338	2.6449	1.20932	1.06227	2.4355	80.22	-0.2381	-0.022	0.216	1257.2729	0.169696	-403.128764	-403.119588	-403.118644	-403.162802	34.148	
C	-0.988112585	 1.2094891408	-0.2956727554	-0.376003
C	-0.101282663	 0.0055924285	 0.0452906508	-0.226935
C	 0.5589433073	-0.5810150961	-1.1880858184	 0.025647
C	 1.0169996406	-1.9950636484	-1.355656996	-0.205387
N	-0.099748137	-1.3797883799	-2.2247181708	-0.142448
C	-1.1193728072	-2.2726924724	-1.5465889536	-0.079549
C	-1.7994830118	-3.2103200138	-2.5330289584	-0.399956
C	 0.0258014152	-2.9519840099	-0.7663506898	 0.412748
O	 0.1192535392	-3.9809991046	-0.1591027357	-0.31892
H	-0.4155387396	 1.9874363212	-0.8120721965	 0.122126
H	-1.8140911471	 0.9201376038	-0.9534172133	 0.127588
H	-1.4142499299	 1.6516433121	 0.6093757447	 0.119851
H	 0.7010366661	 0.3176482113	 0.7248927197	 0.111347
H	-0.6765852531	-0.7463495517	 0.5919716296	 0.115342
H	 1.2441981585	 0.1240656641	-1.6604610817	 0.105907
H	 2.0018790837	-2.2466983499	-1.7347868795	 0.11829
H	-1.8625453679	-1.7208784625	-0.9646379434	 0.097976
H	-1.0612832414	-3.7376626737	-3.1438422299	 0.130468
H	-2.3920603295	-3.9522045418	-1.9902679776	 0.134167
H	-2.4588656082	-2.6492816572	-3.2008750148	 0.127742
80.2715	91.6863	186.2193	201.529	205.4647	223.8427	258.4645	361.8959	407.4736	474.0568	560.0212	650.4631	665.9214	761.3247	798.2926	806.7981	837.3913	875.5823	920.0789	993.5119	1014.982	1038.0585	1051.2692	1075.785	1095.0647	1126.5948	1137.0951	1181.3478	1243.5833	1251.1274	1284.2626	1314.8129	1335.4156	1346.9469	1404.3778	1413.045	1438.6126	1483.6705	1488.671	1494.5484	1496.9333	1506.5557	1882.3172	3036.2026	3041.0501	3045.2351	3069.4233	3083.153	3100.434	3111.4519	3113.2477	3122.3037	3124.6622	3175.6086
CCC1C2N1C(C)C2=O	CC[C@H]1[C@@H]2N1[C@@H](C)C2=O	
InChI=1S/C7H11NO/c1-3-5-6-7(9)4(2)8(5)6/h4-6H,3H2,1-2H3	InChI=1S/C7H11NO/c1-3-5-6-7(9)4(2)8(5)6/h4-6H,3H2,1-2H3/t4-,5-,6-,8?/m0/s1
