16
gdb 7510	3.14	1.31693	1.05715	1.9361	70.87	-0.2282	0.0367	0.2649	1150.484	0.126904	-383.690291	-383.680835	-383.679891	-383.725631	32.901	
C	-0.0280122827	 1.4808434206	 0.0539795248	-0.500591
C	-0.0328879829	 0.0255315979	 0.0394787613	 0.016301
C	-0.0376981527	-1.1800541954	 0.0352375746	 0.083432
C	-0.0145617429	-2.6175660724	-0.005781131	 0.152383
O	 0.8738057605	-3.1967201964	-0.927040077	-0.444063
C	-0.3217397827	-3.4180266961	 1.2589778025	-0.354263
C	-1.3161197076	-3.3804206029	 0.1362296413	 0.078957
O	-2.5018475302	-2.6945539913	 0.3708668301	-0.416293
H	 0.8739685441	 1.8742965599	 0.5359137757	 0.149228
H	-0.0697392542	 1.8914318256	-0.9609686849	 0.150031
H	-0.8920779866	 1.8695342809	 0.6041722178	 0.153217
H	 1.7691893308	-2.984757216	-0.6394264189	 0.285237
H	 0.2512140445	-4.3270618902	 1.4018976447	 0.11993
H	-0.5764937269	-2.8605431026	 2.152356494	 0.131689
H	-1.3889138853	-4.2631440042	-0.4985223187	 0.103199
H	-2.6434349352	-2.0827955473	-0.3603183663	 0.291607
21.7158	77.196	115.338	178.9303	230.7302	261.0608	295.4536	341.9024	355.4985	409.0896	468.0466	556.4201	584.438	624.6251	827.5474	881.8647	912.1383	970.364	1035.7466	1051.8901	1053.8257	1068.2321	1099.2044	1174.451	1222.6148	1306.8756	1326.1929	1362.6128	1407.4621	1414.276	1468.4314	1475.7593	1479.2468	2360.3057	3025.8805	3085.5945	3088.7227	3109.9858	3141.7237	3243.1627	3792.8491	3797.0184
CC#CC1(O)CC1O	CC#C[C@@]1(O)C[C@H]1O	
InChI=1S/C6H8O2/c1-2-3-6(8)4-5(6)7/h5,7-8H,4H2,1H3	InChI=1S/C6H8O2/c1-2-3-6(8)4-5(6)7/h5,7-8H,4H2,1H3/t5-,6-/m1/s1
