16
gdb 52914	2.31533	1.11753	0.85177	3.9694	78.39	-0.271	0.0046	0.2755	1380.0141	0.122426	-400.70801	-400.698393	-400.697448	-400.745973	32.127	
C	 0.0549787455	 1.5178927149	-0.067179973	-0.502104
C	 0.0467759943	 0.0634636033	-0.0362362283	 0.124756
C	 0.0474446218	-1.1398319066	-0.017849097	-0.000461
C	 0.0260687892	-2.5913320647	 0.0267397609	-0.076557
C	 0.0824820214	-3.2490697555	 1.4535892584	-0.091659
O	-1.2034061895	-3.8573984757	 1.2839665336	-0.257515
C	-1.3904148507	-3.2724559567	-0.010340314	-0.091694
C	 0.9774633018	-3.1726470128	-0.9211458388	 0.244578
N	 1.7220314629	-3.6535634354	-1.6625058508	-0.335832
H	 0.907272879	 1.8921043527	-0.6439713583	 0.161747
H	-0.8586119399	 1.9083372089	-0.5278686085	 0.157361
H	 0.1249454012	 1.9344648508	 0.9432100138	 0.15676
H	 0.8819092014	-3.9840723265	 1.5895763058	 0.131683
H	 0.09996479	-2.5132897738	 2.2638149375	 0.123617
H	-2.2123381579	-2.549963778	-0.0344079904	 0.123656
H	-1.5194400705	-4.0222132348	-0.7971189909	 0.131665
7.2788	38.0419	84.3429	112.1837	193.1467	207.6279	303.4059	306.4526	454.6356	480.6177	498.8124	565.383	578.1398	826.8331	842.2211	965.0942	979.6659	982.1338	1039.1572	1051.4255	1053.2404	1064.0475	1152.4194	1165.0285	1177.429	1298.7282	1308.938	1367.8518	1413.8173	1475.101	1475.2596	1506.6475	1531.4116	2358.4346	2375.6246	3032.7482	3033.5277	3043.1767	3096.2554	3096.4022	3097.9216	3098.1773
CC#CC1(COC1)C#N	CC#CC1(COC1)C#N	
InChI=1S/C7H7NO/c1-2-3-7(4-8)5-9-6-7/h5-6H2,1H3	InChI=1S/C7H7NO/c1-2-3-7(4-8)5-9-6-7/h5-6H2,1H3
