20
gdb 102818	2.07663	1.28417	0.90034	2.2315	76.28	-0.2532	0.0279	0.2811	1339.6935	0.169784	-440.292631	-440.282815	-440.281871	-440.3283	34.894	
C	-0.1380405903	 1.431423704	 0.3774181298	-0.388306
C	-0.0770239915	-0.0673118299	 0.0793030482	-0.175977
C	 0.6703511914	-0.4125947049	-1.2242875134	-0.006074
N	 2.0545461879	 0.0321882863	-1.2013251959	-0.278653
C	 2.5187926915	 1.0892771818	-1.9187221842	 0.153685
O	 1.843234134	 1.8142342933	-2.6187999627	-0.328471
C	 0.6188182927	-1.9111572613	-1.484753429	 0.085766
C	 1.5853639378	-2.6193246355	-2.3268314618	-0.190029
O	 1.6697264425	-2.6879845577	-0.8949239352	-0.247374
H	 0.863984832	 1.850080894	 0.5060572871	 0.124606
H	-0.6213897703	 1.9795036469	-0.4373368215	 0.131012
H	-0.7010065135	 1.6203102945	 1.2962789845	 0.112259
H	 0.4009776132	-0.6009054585	 0.9112264422	 0.105044
H	-1.0942994093	-0.4712259986	-0.0007099754	 0.09951
H	 0.1941194456	 0.1130807702	-2.0591805362	 0.126149
H	 2.7050357469	-0.5458684583	-0.6895779645	 0.256898
H	 3.611083603	 1.2234861064	-1.7874242665	 0.076408
H	-0.3726279489	-2.3507764082	-1.3702569274	 0.09912
H	 1.2928010922	-3.5459684409	-2.8169217801	 0.123175
H	 2.3844527029	-2.0627495635	-2.811004578	 0.121251
44.7998	76.8685	105.2405	158.5599	201.0943	214.1887	252.2065	289.0543	329.7293	396.6236	499.6488	598.1832	623.3564	731.0517	785.8885	816.6324	890.6035	901.3303	964.2778	982.375	1033.1667	1035.3105	1066.5363	1097.0088	1143.7713	1148.8893	1162.3996	1173.7367	1213.4127	1280.8135	1297.2378	1306.6559	1361.241	1382.5995	1414.9052	1425.0014	1433.4436	1479.9954	1497.4639	1504.4944	1520.5831	1524.7596	1800.6426	2934.8162	3019.5139	3043.2379	3051.3186	3071.2679	3097.0283	3108.4397	3112.0877	3118.279	3188.0646	3616.6726
CCC(NC=O)C1CO1	CC[C@@H](NC=O)[C@H]1CO1	
InChI=1S/C6H11NO2/c1-2-5(7-4-8)6-3-9-6/h4-6H,2-3H2,1H3,(H,7,8)	InChI=1S/C6H11NO2/c1-2-5(7-4-8)6-3-9-6/h4-6H,2-3H2,1H3,(H,7,8)/t5-,6-/m1/s1
