20
gdb 103895	2.98781	0.85574	0.73916	4.8218	77.36	-0.2332	-0.0142	0.2191	1557.1384	0.16814	-440.266442	-440.255999	-440.255055	-440.302845	36.651	
C	-0.0993266175	 1.8867869035	 0.1731715451	-0.454904
C	-0.0832607439	 0.3781616386	 0.0545921206	 0.289418
C	-1.2860025402	-0.1663153941	-0.7028026472	-0.146676
O	-1.1373384409	-1.5666716984	-0.8765592491	-0.420253
N	 1.2221744105	-0.2462080543	-0.2076405414	-0.37726
C	 0.5390333484	-0.504696049	 1.0811681284	-0.051873
C	 1.2311304019	-0.0152904005	 2.3394666996	-0.297534
C	 2.388241999	-0.9228063762	 2.705048168	 0.162092
O	 2.5512106422	-1.4296976931	 3.7856646909	-0.24391
H	 0.8126226069	 2.2586496893	 0.641748151	 0.133389
H	-0.1658959641	 2.3469797912	-0.8192636762	 0.120336
H	-0.9578666095	 2.2292933483	 0.7620021471	 0.11757
H	-2.2056066569	 0.0733640135	-0.1455837047	 0.099026
H	-1.3489118807	 0.3440855276	-1.6776995698	 0.095764
H	-1.8647745484	-1.8882979792	-1.4154654893	 0.297672
H	 1.0825456744	-1.0516239518	-0.8146671263	 0.240604
H	 0.0744430647	-1.4826723278	 1.1815327	 0.110369
H	 1.6460522405	 0.9850601031	 2.1698313992	 0.120636
H	 0.5406792835	 0.0319726824	 3.1871092307	 0.116931
H	 3.1030230003	-1.0978120632	 1.8702775036	 0.088604
51.0336	62.9312	112.9462	131.7715	168.7052	194.0293	226.459	253.9449	307.1173	369.0967	427.9903	472.5516	513.7541	565.9326	700.7342	804.0691	830.05	878.3415	948.2882	991.2472	1007.7061	1046.3663	1078.0424	1086.205	1100.1578	1115.2584	1148.7604	1201.761	1214.207	1261.8351	1274.1329	1291.9709	1320.2027	1360.2712	1419.8438	1420.3786	1448.8746	1450.1806	1464.4159	1490.8096	1499.4243	1520.171	1831.1913	2889.6025	2964.8756	2994.9896	3032.565	3043.2474	3089.5141	3100.9703	3139.2465	3143.4476	3494.1159	3849.1214
CC1(CO)NC1CC=O	C[C@@]1(CO)N[C@H]1CC=O	
InChI=1S/C6H11NO2/c1-6(4-9)5(7-6)2-3-8/h3,5,7,9H,2,4H2,1H3	InChI=1S/C6H11NO2/c1-6(4-9)5(7-6)2-3-8/h3,5,7,9H,2,4H2,1H3/t5-,6-/m0/s1
