19
gdb 30264	4.5131	1.23959	1.00903	3.9221	81.41	-0.2099	0.0405	0.2504	1186.3622	0.163113	-382.128428	-382.120916	-382.119972	-382.160406	29.414	
C	-0.7604531548	 1.2348412835	-0.0031870373	-0.407908
C	 0.1920714903	 0.0425342921	 0.0078709621	 0.02959
C	 1.1754229977	 0.0193479179	-1.2001589944	-0.197235
N	 2.3321491793	-0.6529209429	-0.6381823053	 0.016095
C	 3.5139269802	-1.205024801	-1.0731023551	-0.162473
C	 4.1666768911	-1.5731978223	 0.0804233135	-0.095912
N	 3.4274625527	-1.2526170937	 1.2021545806	-0.364423
C	 2.3378327118	-0.6991390754	 0.7226114121	 0.377177
C	 1.1036954161	-0.0506352895	 1.2687094387	-0.362635
H	-0.2080075757	 2.1797256378	 0.0492138632	 0.121087
H	-1.3699390747	 1.2519783434	-0.9130573784	 0.118357
H	-1.4425207207	 1.1988569699	 0.8518904018	 0.124819
H	-0.3947861679	-0.8819155986	-0.0405614444	 0.093727
H	 0.7694495724	-0.5205124215	-2.0606081619	 0.121813
H	 1.4364997784	 1.0345396092	-1.5280723542	 0.116178
H	 3.7674696456	-1.2973779531	-2.1157983601	 0.121938
H	 5.1264239781	-2.0610705426	 0.1644999004	 0.102355
H	 1.3281734028	 0.9485433295	 1.6658544235	 0.118876
H	 0.6401677973	-0.6212598427	 2.0772114353	 0.128575
86.0854	193.0332	234.6574	246.6266	278.7431	413.5456	462.8522	518.3521	630.7771	688.9718	718.8883	742.4916	783.7598	829.9368	844.7441	906.2683	938.2259	949.7552	961.5414	1071.9603	1083.8207	1116.5859	1120.9353	1165.1082	1176.3711	1202.6646	1238.2297	1280.5596	1295.7836	1300.8032	1347.3398	1375.6565	1412.3343	1425.1286	1455.1923	1490.1784	1497.471	1499.6788	1501.5726	1532.4834	1576.5058	3013.4573	3017.6614	3030.6411	3038.4967	3080.8459	3094.1298	3099.5706	3105.7153	3243.0058	3279.0482
CC1CN2C=CN=C2C1	C[C@H]1Cn2ccnc2C1	
InChI=1S/C7H10N2/c1-6-4-7-8-2-3-9(7)5-6/h2-3,6H,4-5H2,1H3	InChI=1S/C7H10N2/c1-6-4-7-8-2-3-9(7)5-6/h2-3,6H,4-5H2,1H3/t6-/m1/s1
