18
gdb 96807	2.32822	1.47013	0.91786	1.2786	78.45	-0.2183	-0.0023	0.216	1255.8147	0.147538	-435.320691	-435.311155	-435.310211	-435.355937	33.006	
C	-0.0380098761	 1.4163110089	 0.0887589079	-0.336837
N	-0.0411441018	-0.0332822053	 0.0370619837	-0.357284
C	 0.5024438509	-0.6057769767	-0.9560791016	 0.502467
N	 1.1584623181	-0.0315665025	-2.0614888158	-0.403227
C	 1.6928287761	-0.9597579434	-2.9281343143	 0.420571
O	 2.2893211904	-0.7387604986	-3.9518148882	-0.356006
C	 1.3669283131	-2.3167350805	-2.2990007901	-0.306496
N	 0.5535678333	-1.9713314388	-1.1567443758	-0.12886
C	 0.2037189286	-2.9209697949	-0.1282462539	-0.338346
H	 0.9613736791	 1.8577489559	-0.0589798869	 0.101473
H	-0.7134609401	 1.8645854149	-0.6564921826	 0.111972
H	-0.3877411988	 1.7406771725	 1.0722749513	 0.129189
H	 1.2126111184	 0.9600632835	-2.2241499397	 0.272694
H	 0.8446260222	-2.9548639636	-3.0227730415	 0.141565
H	 2.3036843787	-2.8253310985	-2.0232885424	 0.135434
H	 1.0941223066	-3.3433821744	 0.3600549716	 0.116712
H	-0.3942279965	-2.3999168075	 0.619882411	 0.171217
H	-0.3820996722	-3.7452021311	-0.5502066426	 0.123761
58.3788	78.1065	117.8629	147.1872	167.4178	197.5665	238.7143	287.1047	433.0029	507.4894	567.8327	598.5776	611.8527	638.3056	720.8671	832.3819	892.6668	1016.537	1023.436	1079.2776	1117.1166	1145.9816	1158.4276	1165.2987	1198.2474	1262.3391	1316.9132	1333.83	1360.6908	1433.9877	1444.7006	1454.4942	1492.0758	1496.2508	1498.6068	1510.153	1532.0806	1780.5961	1862.5671	2960.249	2991.2074	2997.8067	3007.1789	3042.4073	3063.2161	3096.067	3153.1335	3671.6707
CN=C1NC(=O)CN1C	CN=C1NC(=O)CN1C	
InChI=1S/C5H9N3O/c1-6-5-7-4(9)3-8(5)2/h3H2,1-2H3,(H,6,7,9)	InChI=1S/C5H9N3O/c1-6-5-7-4(9)3-8(5)2/h3H2,1-2H3,(H,6,7,9)
