15
gdb 128516	3.2787	1.28262	0.92882	2.0869	65.96	-0.1933	0.0246	0.2179	1192.9089	0.111793	-491.057902	-491.048751	-491.047807	-491.092835	31.815	
C	 0.0808184731	 1.4044304292	-0.0339474719	-0.251285
O	 0.0487656166	-0.0257119422	 0.0014205269	-0.278345
C	 0.5840175085	-0.6690922146	-1.0376293254	 0.520239
C	 0.6616580697	-2.012290653	-1.2585686997	-0.114716
N	 0.1451159261	-3.0904111047	-0.5139627952	-0.62326
C	 1.3230476245	-2.0561059821	-2.5133783244	 0.459572
O	 1.6465283869	-3.1940742104	-3.1508073044	-0.422997
N	 1.622805432	-0.8748540751	-3.0056068424	-0.290345
O	 1.1269179775	 0.0358383205	-2.0458686242	-0.239985
H	 1.1105633479	 1.77224748	-0.0713040953	 0.144176
H	-0.4685876001	 1.7859103489	-0.8996725943	 0.145787
H	-0.4000774469	 1.7309078022	 0.8879810404	 0.141187
H	-0.1039244784	-2.7979075453	 0.4235016731	 0.248792
H	 0.8141868526	-3.8494369164	-0.4479804877	 0.25086
H	 2.09763487	-2.9510796371	-3.9704217754	 0.310319
38.3365	69.4429	143.3066	188.0457	193.5064	248.8374	319.3122	372.0171	392.6592	448.5579	568.4982	608.6906	630.7038	721.7208	741.6362	781.7393	820.6442	966.999	976.0766	1086.1617	1176.8049	1198.1	1211.6821	1261.2115	1304.7403	1377.0812	1475.3	1484.6851	1501.8755	1572.7412	1576.8169	1646.1341	1754.5802	3040.7068	3112.1448	3156.8052	3515.1169	3606.4715	3781.5713
COC1=C(N)C(O)=NO1	COc1c(N)c(O)no1	
InChI=1S/C4H6N2O3/c1-8-4-2(5)3(7)6-9-4/h5H2,1H3,(H,6,7)	InChI=1S/C4H6N2O3/c1-8-4-2(5)3(7)6-9-4/h5H2,1H3,(H,6,7)
