20
gdb 36828	5.69514	0.56549	0.5464	1.9645	90.71	-0.2284	0.0394	0.2678	2060.2317	0.170988	-365.942018	-365.932548	-365.931604	-365.979312	33.975	
C	-0.2137667748	 1.5761366709	-0.0729826585	-0.379444
C	-0.2899860544	 0.1189385742	-0.1420599564	 0.058347
C	-0.3269143965	-1.0857815226	-0.1863722993	 0.100134
C	-0.4024707743	-2.5178463139	-0.2585216423	-0.15691
C	 0.0568855967	-3.3504544411	 0.8940625759	-0.226499
N	-1.3737567325	-3.2581460533	 0.5876045447	-0.308191
C	 1.1769012649	 2.094808525	 0.26677774	 0.046674
C	 2.1942701812	 2.3003635848	-0.8225874181	-0.246512
C	 1.5721754007	 3.4921084568	-0.1337453686	-0.278076
H	-0.53250789	 2.0042732545	-1.0331045688	 0.124776
H	-0.935272268	 1.9417797837	 0.6706469117	 0.128658
H	-0.3068300875	-2.9404257871	-1.2556800532	 0.1136
H	 0.5062510786	-4.3204932784	 0.7007047425	 0.122917
H	 0.4464305434	-2.8261831463	 1.761554018	 0.12067
H	-1.8154151403	-2.5979218734	 1.2233583798	 0.237902
H	 1.5577474264	 1.7365643723	 1.2185588867	 0.090711
H	 3.2315274469	 2.0650501774	-0.6125778021	 0.11319
H	 1.8908535886	 2.0896800137	-1.8429888618	 0.114394
H	 0.8535040986	 4.0822813208	-0.6935947862	 0.110729
H	 2.1819615322	 4.071977242	 0.5500903459	 0.112928
8.779	55.41	76.6142	129.7593	186.4912	300.1175	331.084	335.5987	435.4433	520.9151	545.0298	719.6386	769.9284	798.7064	811.7666	841.3406	876.8065	892.4651	950.3398	962.0979	995.377	998.1873	1058.2184	1079.0042	1084.2466	1120.076	1135.3053	1145.7362	1155.8745	1196.5719	1217.4554	1226.8305	1257.1456	1263.4559	1298.2252	1324.2717	1396.4639	1407.8672	1463.039	1472.6781	1504.3967	1507.6834	2358.0502	3006.9035	3036.5835	3112.7101	3128.8051	3134.0228	3134.4656	3151.3588	3203.0718	3206.9781	3222.2617	3503.3405
C(C#CC1CN1)C1CC1	C(C#C[C@H]1CN1)C1CC1	
InChI=1S/C8H11N/c1(2-7-4-5-7)3-8-6-9-8/h7-9H,2,4-6H2	InChI=1S/C8H11N/c1(2-7-4-5-7)3-8-6-9-8/h7-9H,2,4-6H2/t8-/m0/s1
