16
gdb 31172	2.28074	1.59375	0.96819	0.4944	67.61	-0.175	0.0462	0.2213	1149.4187	0.124351	-475.042861	-475.033905	-475.03296	-475.076385	33.163	
O	 0.1508866656	 1.1410147257	 0.8545230109	-0.419094
C	-0.0270555011	 0.1595569346	-0.1878176033	-0.209961
C	-1.4015508434	-0.4235422598	-0.1534472176	-0.045386
C	-2.1016061157	-0.6568272073	 1.0161400016	 0.355132
O	-1.7542574438	-0.4204545166	 2.2995422741	-0.439285
N	-3.3178030468	-1.1736621327	 0.7193094906	-0.315811
C	-3.4443373464	-1.2992307245	-0.6657916357	-0.186009
C	-2.2773545881	-0.8359173608	-1.2126467955	 0.221118
O	-2.0349470416	-0.7590736461	-2.5581359713	-0.452446
H	-0.4939610598	 1.8388563607	 0.6868763988	 0.288651
H	 0.1921327825	 0.599952172	-1.1728524404	 0.095305
H	 0.7596810631	-0.5782641574	 0.0134616255	 0.122946
H	-0.9533531879	 0.1290311166	 2.2511138072	 0.304759
H	-4.0262044364	-1.382010646	 1.4001481426	 0.265676
H	-4.3304834557	-1.7027675841	-1.1218097634	 0.120781
H	-1.0851195045	-0.7831046445	-2.7035284041	 0.293624
104.401	117.1258	163.1907	199.7237	241.5687	286.733	306.6842	389.7641	445.5693	454.4214	539.2382	584.82	604.2658	654.7179	672.7822	697.2564	755.5213	786.0807	958.3167	999.7833	1071.2039	1087.9702	1178.8996	1203.401	1215.5481	1272.9299	1320.3973	1364.6414	1395.1549	1408.6582	1448.1779	1509.391	1586.9253	1604.4719	1659.9332	2982.5555	3035.998	3293.03	3660.6903	3693.235	3789.312	3839.1585
OCC1=C(O)NC=C1O	OCc1c(O)[nH]cc1O	
InChI=1S/C5H7NO3/c7-2-3-4(8)1-6-5(3)9/h1,6-9H,2H2	InChI=1S/C5H7NO3/c7-2-3-4(8)1-6-5(3)9/h1,6-9H,2H2
