17
gdb 33829	4.51478	1.07997	1.00095	2.6248	81.05	-0.2447	0.0279	0.2726	1201.0418	0.135801	-380.760407	-380.752478	-380.751533	-380.792742	31.188	
C	 0.0136073054	-1.1974867954	 0.100156309	-0.395613
C	 0.0375574032	 0.0035096056	 0.0412835263	 0.236842
C	 0.0365035951	 1.4235628223	-0.076354003	 0.136817
C	-0.6925159148	 2.2253374601	-1.1823440292	-0.392005
C	 0.485491744	 3.2234010422	-1.1546748996	 0.353295
C	 1.0792531434	 3.9331700155	-2.302691059	-0.308464
N	 0.4507170454	 4.68415899	-1.1905957607	-0.366644
C	 1.1763852808	 2.4297401186	-0.0654000991	-0.155157
N	 0.3081945985	 2.2676433757	 1.0904468801	-0.347468
H	 0.0011758269	-2.2570959891	 0.1673235937	 0.189816
H	-0.7693686937	 1.6823743919	-2.1270134613	 0.12628
H	-1.6819267877	 2.6030301998	-0.900441184	 0.103727
H	 2.1572476572	 4.0513457426	-2.3752509998	 0.125513
H	 0.5641111804	 3.8803010458	-3.2586977813	 0.115893
H	-0.4734453639	 5.0040916829	-1.4720654957	 0.232323
H	 2.2405235258	 2.2672662501	 0.0583603442	 0.109503
H	-0.3617768762	 3.0302828615	 1.1832385994	 0.235343
83.4945	145.4073	210.8657	270.6023	324.198	400.2336	444.3376	505.5047	531.5129	576.2729	603.6712	648.8719	658.2025	788.6532	831.6048	843.5674	901.8829	931.9414	953.8987	978.6297	998.5971	1006.8603	1063.7021	1090.1573	1116.7174	1138.6185	1143.2742	1218.3549	1230.7362	1254.8346	1267.2162	1294.8843	1408.0887	1422.7371	1481.0945	1515.8459	2241.2345	3039.1446	3103.8967	3110.9386	3188.4797	3191.1599	3456.6839	3490.1493	3503.0832
C#CC12CC3(CN3)C1N2	C#C[C@]12C[C@]3(CN3)[C@H]1N2	
InChI=1S/C7H8N2/c1-2-6-3-7(4-8-7)5(6)9-6/h1,5,8-9H,3-4H2	InChI=1S/C7H8N2/c1-2-6-3-7(4-8-7)5(6)9-6/h1,5,8-9H,3-4H2/t5-,6-,7-/m0/s1
