17
gdb 37432	3.08462	1.78189	1.44735	3.77	71.23	-0.2316	0.0403	0.2719	922.1971	0.139479	-417.963805	-417.957068	-417.956124	-417.995241	26.656	
C	-0.011554844	 1.4869514839	-0.1755918039	-0.166667
N	 1.198365492	 2.1390125899	 0.3105176468	-0.267146
C	 2.0373437996	 1.5051979736	 1.0032698962	 0.135616
O	 2.0704110612	 0.197941075	 1.3836296722	-0.238721
C	 1.0738371439	-0.660985612	 0.8617630421	 0.131414
C	 0.0033910688	-1.1684483175	 1.8220469226	-0.083619
N	-0.8225310166	-0.0048421928	 2.2153383567	-0.324288
C	-1.0691840594	-0.6622911385	 0.9151216637	-0.059413
C	-0.0456092354	-0.044333435	-0.0517865828	-0.08653
H	-0.848142867	 1.9160027226	 0.3867882974	 0.127494
H	-0.1469180203	 1.7897230881	-1.2196875968	 0.104849
H	 2.9198396958	 2.0065786831	 1.3962801699	 0.118505
H	 1.5863500542	-1.4907047676	 0.3673237231	 0.09508
H	 0.046062421	-2.0563190683	 2.4401097302	 0.098121
H	-1.520315744	-0.3456656237	 2.8751222982	 0.2346
H	-2.0312861783	-1.0969294416	 0.6752637089	 0.098425
H	-0.0466509114	-0.5302772594	-1.0290299346	 0.082279
78.7092	142.6839	272.2146	421.6547	471.8181	488.0912	573.5538	614.1293	694.626	768.9112	825.4115	838.1508	892.7377	911.9098	918.3631	953.2027	970.0707	1003.0987	1015.1772	1033.497	1063.4751	1102.3841	1114.8343	1119.195	1170.3062	1182.2844	1258.4692	1271.7058	1287.897	1330.5148	1348.3165	1363.9971	1380.0615	1394.4466	1420.5626	1474.2356	1754.0427	3035.2988	3064.9081	3068.831	3095.4536	3158.3456	3189.4872	3202.7024	3484.3859
C1N=COC2C3NC3C12	C1N=CO[C@H]2[C@H]3N[C@H]3[C@@H]12	
InChI=1S/C6H8N2O/c1-3-4-5(8-4)6(3)9-2-7-1/h2-6,8H,1H2	InChI=1S/C6H8N2O/c1-3-4-5(8-4)6(3)9-2-7-1/h2-6,8H,1H2/t3-,4+,5+,6-/m1/s1
