17
gdb 107317	2.70483	1.70649	1.20092	3.004	74.47	-0.2301	-0.0571	0.173	1037.1201	0.135631	-421.827168	-421.819141	-421.818197	-421.859609	30.466	
C	 0.0445378259	 1.3236788045	 0.2998613347	-0.263032
O	-0.0125322279	 0.0011448456	-0.2319224343	-0.28856
C	-1.264375924	-0.5730919393	-0.1685779163	 0.338847
C	-1.7629724891	-1.1538131983	 1.1506694716	-0.337069
C	-1.4238647978	-2.0566781666	-0.028991659	-0.178908
C	-2.600134823	-2.4160432154	-0.8775420243	-0.062807
C	-3.1453818072	-1.3428600371	-1.4701578454	-0.193249
C	-2.352259572	-0.1264908898	-1.14456948	 0.328991
O	-2.4999961548	 0.9929132487	-1.5794544217	-0.339698
H	 1.0808735952	 1.6517563631	 0.1964209919	 0.125702
H	-0.6159005412	 1.998880408	-0.2509931948	 0.150019
H	-0.2309709998	 1.3327076678	 1.3639024683	 0.104129
H	-1.0424852542	-1.1192049958	 1.961849726	 0.129896
H	-2.8030758089	-1.046699552	 1.4386989081	 0.126516
H	-0.5645377362	-2.7113523948	 0.0449479566	 0.115778
H	-2.9790879871	-3.4302359306	-0.939410647	 0.122253
H	-4.0241726781	-1.315450458	-2.1004302943	 0.121192
112.684	140.228	176.5515	232.0201	283.9613	321.2231	378.471	448.6321	492.2751	639.1466	667.2243	728.9141	747.8912	824.0409	849.8187	884.7147	940.3582	977.3898	986.3826	1009.8072	1035.2551	1067.352	1088.6291	1098.3746	1133.5441	1181.7551	1222.4299	1243.6823	1293.1263	1360.5469	1376.6077	1463.9657	1483.2091	1484.23	1515.1336	1627.4167	1808.7609	3003.8219	3093.6739	3127.7997	3136.0905	3190.7302	3199.5775	3225.0776	3232.7028
COC12CC1C=CC2=O	CO[C@]12C[C@H]1C=CC2=O	
InChI=1S/C7H8O2/c1-9-7-4-5(7)2-3-6(7)8/h2-3,5H,4H2,1H3	InChI=1S/C7H8O2/c1-9-7-4-5(7)2-3-6(7)8/h2-3,5H,4H2,1H3/t5-,7-/m1/s1
