18
gdb 30391	3.80949	1.10702	0.86704	2.6206	88.09	-0.208	-0.0209	0.1871	1338.4561	0.147546	-401.981387	-401.97266	-401.971716	-402.014956	32.09	
C	 0.1183567954	 1.4395134473	-0.1215235084	-0.320201
N	 0.1614607378	-0.0117198794	-0.1017772771	-0.313873
C	 0.5617784189	-0.5977806302	 0.9715524765	 0.306049
C	 0.9968766713	 0.0221864029	 2.2265579554	-0.254354
C	 1.3868552316	-0.734766994	 3.261497467	 0.057993
O	 1.4167848661	-2.0884957083	 3.2525187991	-0.238271
C	 1.0213433261	-2.7313445105	 2.1043989102	 0.376422
C	 1.1120093836	-4.213491248	 2.2552987336	-0.470569
C	 0.6152726908	-2.0544947885	 1.01864684	-0.258069
H	 1.1069215862	 1.8978175837	 0.0381037072	 0.107466
H	-0.2420046516	 1.7733444445	-1.0983997394	 0.116538
H	-0.5602270602	 1.8564198	 0.6390547937	 0.107416
H	 1.0117842132	 1.0976427772	 2.3415499524	 0.111533
H	 1.7201578802	-0.3481864098	 4.2170910729	 0.134606
H	 2.139249416	-4.5173448464	 2.4851517243	 0.142929
H	 0.4794977483	-4.5584635321	 3.0807191305	 0.142945
H	 0.7948529404	-4.7101361224	 1.3373001084	 0.140515
H	 0.3109660157	-2.596306606	 0.1316641437	 0.110925
87.9559	109.4749	161.3214	170.8427	216.1098	299.9991	328.492	412.3531	445.9817	523.6068	561.475	599.4708	725.0646	751.2359	833.3738	878.4136	902.2404	937.9125	957.5884	1005.842	1045.6323	1068.2471	1095.4448	1096.2609	1147.3585	1211.3193	1266.9869	1284.9274	1373.3814	1415.7919	1421.0997	1433.86	1469.6667	1485.0849	1490.0574	1505.4219	1642.8192	1677.1739	1732.6355	2967.0321	3013.5394	3037.1257	3090.5469	3091.5352	3145.0205	3206.97	3213.1285	3228.5895
CN=C1C=COC(C)=C1	C[N]C1=C[C@@H](OC=C1)C	
InChI=1S/C7H9NO/c1-6-5-7(8-2)3-4-9-6/h3-5H,1-2H3	InChI=1S/C7H10NO/c1-6-5-7(8-2)3-4-9-6/h3-6H,1-2H3/t6-/m0/s1
