18
gdb 91612	2.17705	2.12478	1.49397	3.1604	71.53	-0.2641	0.0184	0.2824	939.7323	0.150812	-439.112959	-439.105853	-439.104908	-439.144285	29.042	
O	 0.1022834666	 1.4042735066	-0.1171556888	-0.447478
C	 0.0311427817	 0.0073388816	 0.0161779907	 0.154358
C	 0.62577086	-0.5744553332	 1.3496401567	-0.253755
C	-0.5457185885	-1.4029722038	 1.8994104815	 0.086166
C	-1.1958911425	-1.9710048389	 0.6296141992	-0.244882
C	-1.4241979154	-0.565250711	 0.0408043357	-0.143856
C	-2.0680864749	 0.1240173467	 1.2221250598	 0.403517
N	-2.8518020977	 1.1169696719	 1.1879590035	-0.560863
O	-1.5572705611	-0.4531221631	 2.3534125947	-0.253816
H	-0.6748380295	 1.793832035	 0.3069479684	 0.293527
H	 0.5632878409	-0.4073473731	-0.8455597234	 0.090863
H	 1.5043873731	-1.199500957	 1.1679858247	 0.106669
H	 0.9094324664	 0.2302914372	 2.0310304336	 0.122656
H	-0.3341374963	-2.0792874568	 2.7256640503	 0.091156
H	-0.5183324935	-2.5888784114	 0.0353254737	 0.11184
H	-2.1180786881	-2.5207006658	 0.8309422677	 0.119521
H	-1.9739866145	-0.4554512922	-0.8902933131	 0.10011
H	-3.0789102165	 1.4268938173	 2.135435005	 0.224265
131.717	148.3959	352.533	367.3693	409.7254	420.9501	446.0913	512.723	566.7291	676.2862	731.2474	805.9927	830.2062	852.5829	894.7284	909.3321	937.9038	942.4794	963.9445	974.612	1006.2554	1059.4431	1067.65	1097.9068	1151.8013	1177.2279	1195.3672	1208.4505	1265.5811	1275.0421	1296.241	1315.8958	1330.421	1357.6229	1382.506	1446.8485	1475.2751	1497.7586	1770.0928	3054.9874	3067.924	3072.4782	3123.9722	3127.4116	3139.1575	3160.5618	3460.7193	3738.8093
OC1CC2CC1C(=N)O2	O[C@H]1C[C@@H]2C[C@H]1[C]([NH])O2	
InChI=1S/C6H9NO2/c7-6-4-1-3(9-6)2-5(4)8/h3-5,7-8H,1-2H2	InChI=1S/C6H9NO2/c7-6-4-1-3(9-6)2-5(4)8/h3-5,7-8H,1-2H2/t3-,4+,5-/m0/s1
