16
gdb 42560	3.33669	1.60606	1.33934	4.2711	72.36	-0.2468	0.0031	0.2499	961.8908	0.12459	-400.684178	-400.67732	-400.676375	-400.715381	27.489	
O	-0.1146244602	 0.115698746	 0.2421392747	-0.316452
C	-0.1358129656	 1.2996554787	 0.1412884129	 0.453852
C	-1.1745183442	 2.3789634688	-0.1473600855	-0.326565
C	 0.0702972969	 3.1182628767	-0.7853475778	-0.031267
C	 0.4278134433	 3.5390842671	 0.5740743607	-0.145028
N	 0.9921177268	 2.2327189692	 0.0431846802	-0.210926
C	-0.9761860149	 3.2865047719	 1.0849679672	 0.423943
C	-1.9169079105	 4.3276587346	 1.599376085	-0.354376
C	-1.5113993006	 3.1510114831	 2.4732088731	-0.335079
H	-2.1513444403	 2.1704616662	-0.5749034587	 0.101728
H	 0.3253535198	 3.4296816782	-1.7870127876	 0.128061
H	 1.1636451265	 4.2560723617	 0.9156015964	 0.114559
H	-1.5144331178	 5.3060308987	 1.843122	 0.121414
H	-2.9282797912	 4.3476370214	 1.2072164748	 0.122415
H	-2.2515938399	 2.381062871	 2.664390887	 0.12831
H	-0.8402059981	 3.3405525865	 3.3042770377	 0.125411
112.6618	194.4524	246.6966	291.8876	452.0588	485.6015	586.7319	629.676	724.5985	767.2103	779.5146	794.9619	846.8033	872.7238	880.8679	895.7543	932.9091	969.5839	990.966	996.0335	1028.1459	1054.8574	1066.0545	1080.6724	1136.1896	1151.0514	1166.2208	1183.0529	1207.1979	1260.0595	1314.6091	1405.5732	1461.7922	1508.491	1925.162	3125.8086	3132.3366	3164.3138	3199.9048	3206.0205	3220.9098	3238.7069
O=C1C2C3C(N13)C21CC1	O=C1[C@@H]2[C@H]3[C@H](N13)C12CC1	
InChI=1S/C7H7NO/c9-6-3-4-5(8(4)6)7(3)1-2-7/h3-5H,1-2H2	InChI=1S/C7H7NO/c9-6-3-4-5(8(4)6)7(3)1-2-7/h3-5H,1-2H2/t3-,4-,5-,8?/m0/s1
