22
gdb 22039	2.94895	0.9374	0.8614	1.5409	81.96	-0.2358	0.0176	0.2533	1464.2833	0.189392	-441.459105	-441.447654	-441.44671	-441.496246	41.612	
C	-0.2170806936	 1.5733472357	-0.0353996636	-0.460568
C	 0.0130891338	 0.0858896914	-0.049092815	 0.353181
C	 0.1027165452	-0.6977859655	 1.2368784417	-0.276386
C	 1.4151224223	-0.5157851939	 2.0358273134	 0.339639
C	 1.3444145886	-1.3467873841	 3.325099528	-0.412489
C	 2.6407448115	-0.9092814703	 1.2023692319	-0.406435
O	 1.4761207018	 0.8775112552	 2.3694174726	-0.457945
N	 0.1171508226	-0.6059774345	-1.1215145061	-0.171173
O	 0.0188476999	 0.2016436459	-2.2696499909	-0.401086
H	 0.6333012503	 2.0948230046	-0.4868510415	 0.140671
H	-1.0920814836	 1.819762732	-0.6457487327	 0.134286
H	-0.347930584	 1.9422019057	 0.98009576	 0.133721
H	-0.7268413213	-0.4048645283	 1.892178963	 0.106178
H	-0.011734001	-1.7587941504	 1.0003636791	 0.111741
H	 1.2499346372	-2.4158714673	 3.1094379612	 0.116346
H	 2.254323488	-1.2069733012	 3.9205562181	 0.101514
H	 0.4896529067	-1.0358658271	 3.9326166573	 0.120532
H	 2.706221384	-0.3014815205	 0.2974989751	 0.132442
H	 3.5582499559	-0.765697565	 1.7856535533	 0.097466
H	 2.5965640559	-1.9610944368	 0.9037281819	 0.120194
H	 2.3054183337	 1.0326444642	 2.8336270449	 0.275482
H	 0.084378526	-0.4485788794	-2.9765182916	 0.302687
33.6111	52.0527	87.3221	158.8421	217.018	249.2669	270.75	276.973	298.6642	304.3138	335.9119	380.5409	399.8559	412.9584	451.017	505.7085	555.7359	672.3869	765.7831	821.9287	894.3903	917.4053	929.2922	972.3425	986.2052	1014.6798	1045.9549	1051.1093	1143.125	1163.475	1196.1406	1261.6005	1293.9261	1343.0368	1373.0975	1395.2134	1399.3473	1403.3063	1419.6464	1463.4993	1469.2066	1477.4346	1483.2732	1485.1473	1498.8848	1504.6214	1719.9862	3025.6744	3030.2893	3035.6039	3045.9561	3092.0205	3097.4884	3098.9418	3104.3865	3115.9223	3131.4009	3167.8159	3809.0355	3823.0951
CC(CC(C)(C)O)=NO	CC(=NO)CC(C)(C)O	
InChI=1S/C6H13NO2/c1-5(7-9)4-6(2,3)8/h8-9H,4H2,1-3H3	InChI=1S/C6H13NO2/c1-5(7-9)4-6(2,3)8/h8-9H,4H2,1-3H3
