19
gdb 37915	2.64983	1.96912	1.40507	1.4486	78.78	-0.2313	0.0268	0.2581	963.86	0.161868	-385.852216	-385.84516	-385.844215	-385.884006	28.658	
C	 0.0609407136	 1.5323147174	-0.1706701735	-0.283561
C	 1.4361505017	 2.1423248367	-0.0416396321	-0.061694
C	 2.2673621379	 2.0460248736	 0.9957002472	-0.037992
C	 2.1067979855	 1.2812522487	 2.2849139393	-0.282441
C	 1.1158868779	 0.1257272479	 2.3391101953	 0.129889
O	-0.295946356	 0.4927153033	 2.4641600722	-0.304678
C	-0.6345045577	-0.4359835993	 1.4281533094	 0.073898
C	-0.0564545486	 0.0389656955	 0.1336001913	-0.045726
C	 0.8135553439	-0.7316153697	 1.1148183235	-0.169163
H	-0.6188571304	 2.0683577868	 0.5043101346	 0.129345
H	-0.3120237797	 1.7069524952	-1.1842061525	 0.095246
H	 1.7545244331	 2.766222063	-0.8743160636	 0.08143
H	 3.2055660518	 2.5955699352	 0.9322655357	 0.081302
H	 3.0878616546	 0.864252661	 2.553818722	 0.106301
H	 1.8641385437	 1.972879994	 3.1064263654	 0.123462
H	 1.3645248803	-0.5085451287	 3.2001709864	 0.082521
H	-1.5090796885	-1.0601507765	 1.570688854	 0.098723
H	-0.3303475124	-0.5888561582	-0.7113610699	 0.090139
H	 1.3077803696	-1.6586729757	 0.8580994355	 0.092999
47.4881	216.3944	301.9702	333.3159	373.8387	439.5946	583.3161	621.7921	679.0525	703.9176	786.3501	798.6855	825.7745	840.1403	853.8106	914.9913	952.0535	980.8256	997.8788	1009.9026	1025.2504	1036.15	1043.8122	1051.4024	1066.1204	1136.2827	1172.9732	1236.5385	1250.7744	1257.9575	1277.285	1315.769	1333.5303	1361.5729	1370.8831	1403.1758	1431.5699	1435.0216	1454.3459	1471.936	1738.0518	2993.3912	3012.986	3022.1496	3025.4742	3073.0367	3123.7084	3136.8241	3151.5459	3177.5465	3203.8457
C1C=CCC2OC3C1C23	C1C=CC[C@H]2O[C@H]3[C@@H]1[C@@H]23	
InChI=1S/C8H10O/c1-2-4-6-7-5(3-1)8(7)9-6/h1-2,5-8H,3-4H2	InChI=1S/C8H10O/c1-2-4-6-7-5(3-1)8(7)9-6/h1-2,5-8H,3-4H2/t5-,6+,7-,8-/m0/s1
