15
gdb 19321	4.9986	1.68173	1.49127	1.2774	72.2	-0.2185	0.0275	0.246	855.2104	0.118157	-325.400184	-325.393452	-325.392508	-325.430695	27.033	
C	 0.0152147337	-1.175073321	-0.0202714656	-0.407279
C	-0.001476607	 0.0289783928	-0.0269392317	 0.18701
C	-0.0446868621	 1.4469873507	-0.0116642274	 0.158995
C	 0.2609017164	 2.3190887396	-1.2146571356	-0.351167
C	 1.0864300096	 2.4801327081	 0.0204193571	-0.046564
N	 0.4911636894	 3.2186665667	 1.1982340305	-0.138205
C	-0.8696369742	 3.7028100232	 0.8767190898	-0.251846
C	-0.6694513512	 2.2665400049	 1.1467731552	-0.077977
H	 0.0370455695	-2.2363726087	-0.0183479933	 0.187559
H	 0.7790022379	 1.7788020128	-2.0003327354	 0.136168
H	-0.4385027472	 3.0584061868	-1.5870643482	 0.121536
H	 2.1560457435	 2.3179611298	 0.0408334365	 0.121009
H	-1.2795348729	 4.2950287778	 1.6900748669	 0.129632
H	-1.1138268232	 4.0833528571	-0.1076147544	 0.123683
H	-1.0185813521	 1.7725216093	 2.0471274957	 0.107446
148.1093	153.1471	318.8139	437.9914	478.2606	493.8675	516.417	552.2516	601.0782	656.182	686.3439	755.0175	786.0036	822.6265	893.9846	930.4679	982.7249	997.7788	1028.379	1051.3349	1074.4424	1091.203	1106.9159	1132.3393	1189.7659	1222.376	1261.0388	1313.8424	1386.665	1470.9631	1514.9329	2230.72	3127.372	3140.347	3171.1368	3202.5083	3212.8299	3220.997	3503.9444
C#CC12CC1N1CC21	C#C[C@]12C[C@H]1N1C[C@@H]21	
InChI=1S/C7H7N/c1-2-7-3-5(7)8-4-6(7)8/h1,5-6H,3-4H2	InChI=1S/C7H7N/c1-2-7-3-5(7)8-4-6(7)8/h1,5-6H,3-4H2/t5-,6+,7+,8?/m1/s1
