13
gdb 132844	3.15816	1.51446	1.0236	4.7799	70.11	-0.2615	-0.0789	0.1826	1051.505	0.089961	-460.782785	-460.775821	-460.774877	-460.814596	25.606	
F	-0.0964197923	 0.0472475232	 0.006903548	-0.031553
C	-0.0609206819	 1.3646654204	 0.0120643813	 0.313278
N	-1.2273047796	 1.9669910277	 0.0297748656	-0.318974
C	-1.2308080558	 3.3052567787	 0.0357342276	 0.014617
C	-0.0744364889	 4.0781288239	 0.0241871711	-0.131241
C	 1.1453823949	 3.4141565863	 0.0055643052	-0.137002
C	 1.1852480663	 2.0190142559	-0.0010118514	 0.005725
C	 2.4958588786	 1.3293380758	-0.0207039457	 0.08751
O	 2.6777187135	 0.1378646333	-0.0280796776	-0.252316
H	-2.2108376451	 3.7749965868	 0.0504310869	 0.131644
H	-0.1332325491	 5.1595024908	 0.0296772157	 0.117536
H	 2.0816885486	 3.9655565383	-0.0040959502	 0.126366
H	 3.3523874407	 2.0430123787	-0.0294870966	 0.074408
89.7829	188.9862	205.595	282.2275	420.3108	452.1743	452.4624	564.1398	583.9821	679.0955	771.0434	797.5556	822.8724	907.0065	978.9836	998.3862	1040.2677	1086.6394	1135.1155	1220.6809	1265.9266	1323.2553	1342.3272	1436.1488	1476.8999	1493.1555	1608.8381	1636.852	1814.4617	2860.2166	3167.5421	3171.4474	3213.9884
FC1=NC=CC=C1C=O	Fc1ncccc1C=O	
InChI=1S/C6H4FNO/c7-6-5(4-9)2-1-3-8-6/h1-4H	InChI=1S/C6H4FNO/c7-6-5(4-9)2-1-3-8-6/h1-4H
