15
gdb 17740	6.40982	1.73162	1.65411	3.2711	65.88	-0.2353	0.0692	0.3045	795.2316	0.119436	-362.524232	-362.518395	-362.517451	-362.553944	23.542	
C	 0.0426353214	 1.5675919187	-0.0097308853	-0.30193
O	 1.2151650794	 0.7193073761	-0.0217142832	-0.27869
C	-0.0475828739	 0.1146458659	 0.0060625329	 0.557865
C	-0.5767279359	-0.934936248	 0.9616674269	-0.145611
C	-1.8143115432	-1.2168642361	 0.0496831904	-0.05687
C	-1.4595748299	-2.6986540981	 0.0580592098	-0.185615
N	-0.063861016	-2.0794046293	 0.0278377997	-0.155275
C	-0.6091195175	-0.9532709366	-0.90992221	-0.145612
H	-0.1070044114	 2.1352090294	 0.9074147075	 0.121564
H	-0.1388399159	 2.1171917666	-0.9320886566	 0.121564
H	-0.5018549496	-1.0260329949	 2.0451920423	 0.093654
H	-2.7826190759	-0.7057326038	 0.0614344668	 0.071283
H	-1.6607768597	-3.2748310342	 0.966749776	 0.105009
H	-1.6919015346	-3.2924476709	-0.8316678899	 0.105009
H	-0.5717522174	-1.065598005	-1.9933964743	 0.093654
165.2773	270.1129	313.966	474.7192	506.6062	596.8383	717.2542	782.9296	823.8783	833.5099	876.4285	877.6057	891.2983	932.6197	1003.3966	1031.774	1049.6515	1061.8806	1095.5618	1114.302	1117.015	1134.7362	1157.3969	1159.7263	1171.4255	1218.0734	1239.6954	1272.8411	1286.1568	1471.6405	1521.3812	1563.0177	3037.5017	3051.6401	3085.4134	3099.252	3121.5734	3125.9684	3172.0659
C1OC11C2C3CN2C13	C1O[C@]21[C@H]1[C@@H]3CN1[C@H]23	
InChI=1S/C6H7NO/c1-3-4-6(2-8-6)5(3)7(1)4/h3-5H,1-2H2	InChI=1S/C6H7NO/c1-3-4-6(2-8-6)5(3)7(1)4/h3-5H,1-2H2/t3-,4+,5-,6+
