16
gdb 74175	3.2356	1.21469	0.93598	3.5471	75.04	-0.227	-0.0545	0.1725	1191.9365	0.124269	-437.943306	-437.934987	-437.934043	-437.976944	30.76	
N	 0.2764993291	 1.276502972	 0.0498068857	-0.574103
C	 0.0582174102	-0.0592810139	 0.0016527836	 0.388433
C	-1.1108759164	-0.7482562305	-0.025398882	-0.338024
C	-0.8750723089	-2.1836318771	-0.027567179	 0.400312
O	-1.6888179518	-3.0826681944	-0.0450385118	-0.358999
C	 0.6572155771	-2.4007228954	-0.007326182	-0.376036
C	 1.2667563472	-0.9940167144	 0.0303002203	-0.172185
C	 2.2393154642	-0.6641753033	-1.0981277808	 0.144537
O	 2.7119118189	 0.4334730985	-1.2672718604	-0.253854
H	 1.1914618791	 1.5960518257	-0.2388167456	 0.276918
H	-0.4941615164	 1.8969880058	-0.1408957492	 0.264118
H	-2.1023591508	-0.3151122131	-0.0384983801	 0.09704
H	 0.9311151281	-3.0068434315	 0.8595408693	 0.134126
H	 0.9553856422	-2.9656429077	-0.89743658	 0.127127
H	 1.8274208828	-0.8042050193	 0.9562694261	 0.133838
H	 2.5004304952	-1.5069669115	-1.773549674	 0.106751
58.7174	71.5702	167.6814	220.8716	319.4304	351.0774	433.1267	496.2457	520.5714	555.9727	580.4184	598.8441	646.4997	688.7157	787.7789	847.5775	851.7112	917.1232	1012.3155	1055.7693	1063.2469	1105.9955	1176.597	1194.8132	1225.5191	1272.0129	1287.8822	1305.7461	1388.4546	1414.6834	1468.9614	1630.9871	1684.1826	1799.9322	1808.9849	2906.154	3016.7773	3054.769	3106.8161	3220.1918	3552.3312	3680.5451
NC1=CC(=O)CC1C=O	NC1=CC(=O)C[C@H]1C=O	
InChI=1S/C6H7NO2/c7-6-2-5(9)1-4(6)3-8/h2-4H,1,7H2	InChI=1S/C6H7NO2/c7-6-2-5(9)1-4(6)3-8/h2-4H,1,7H2/t4-/m0/s1
