22
gdb 104151	2.72038	1.16802	1.03785	0.9302	83.67	-0.2395	0.0318	0.2712	1313.4425	0.193123	-404.389611	-404.379632	-404.378688	-404.424708	36.797	
C	 0.0111391137	 1.5629651385	 0.0977746441	-0.390718
C	-0.0447626223	 0.0464757132	-0.1040192758	-0.201541
C	 0.7732570019	-0.4859518283	-1.2993095879	 0.279954
C	 2.2637153654	-0.1384298906	-1.1802083603	-0.423991
C	 0.5569520702	-2.0214833823	-1.4801192522	-0.155474
O	 0.0170782867	-2.1613018469	-2.8092681167	-0.256434
C	-0.1229222733	-0.8927216475	-3.2897229305	 0.400639
C	-0.7082287184	-0.8071785739	-4.6581997598	-0.474688
N	 0.2449280641	 0.0792358455	-2.5606041841	-0.331486
H	 1.012314636	 1.8999624493	 0.3827939598	 0.113507
H	-0.2720510841	 2.0819533612	-0.8214673064	 0.140492
H	-0.6757880055	 1.8693087407	 0.8927865858	 0.107305
H	 0.2993847699	-0.4663261298	 0.8047030392	 0.0896
H	-1.0876365918	-0.2585158273	-0.2553546176	 0.094611
H	 2.6792556274	-0.516604324	-0.2392455554	 0.107872
H	 2.8260178884	-0.5833595404	-2.0069118911	 0.114346
H	 2.4158976984	 0.9423034283	-1.2185612491	 0.130597
H	 1.4840357706	-2.5993870512	-1.4224345089	 0.110088
H	-0.165117863	-2.4379736172	-0.7699884532	 0.108005
H	-0.0838025039	-1.3542709805	-5.3715695411	 0.143852
H	-1.7006626521	-1.2684477429	-4.6758828236	 0.143512
H	-0.7827859083	 0.2363202864	-4.9616922853	 0.14995
42.9249	110.7154	141.7147	160.4288	213.8923	228.9241	268.0932	304.53	338.4459	362.4016	435.2522	469.768	601.5536	640.4838	682.7253	786.2941	823.0169	897.769	901.5586	943.8375	965.2927	1010.5735	1022.3667	1030.1075	1065.7457	1071.0354	1075.2003	1175.5387	1200.8061	1211.2647	1259.3922	1282.1317	1324.0829	1370.0834	1381.4525	1403.3665	1406.1566	1416.5978	1475.5615	1476.3408	1477.2722	1487.5564	1493.6883	1506.3763	1512.7238	1522.6788	1740.9186	3010.8175	3032.7128	3041.3722	3043.2693	3050.5307	3050.635	3087.417	3101.1802	3105.0147	3107.4752	3126.1238	3129.4901	3166.3018
CCC1(C)COC(C)=N1	CC[C@@]1(C)COC(=N1)C	
InChI=1S/C7H13NO/c1-4-7(3)5-9-6(2)8-7/h4-5H2,1-3H3	InChI=1S/C7H13NO/c1-4-7(3)5-9-6(2)8-7/h4-5H2,1-3H3/t7-/m0/s1
