21
gdb 56901	2.3007	1.16816	0.94028	1.7121	84.85	-0.2469	0.0543	0.3011	1355.072	0.178652	-387.045979	-387.035475	-387.03453	-387.081192	39.486	
C	-0.1920206343	 1.442488745	 0.0966857904	-0.388019
C	 0.0847417635	-0.0605643631	-0.1176459189	-0.195684
C	 0.8217126496	-0.2858603533	-1.3628274918	 0.342904
C	 1.439930045	-0.4552452203	-2.3800479767	-0.473221
C	 0.8285415834	-0.651392837	 1.0755168679	-0.006087
C	 0.0790233418	-1.1169405681	 2.3122563575	-0.371381
C	 0.8136563616	-2.1070313927	 1.4323409028	 0.398979
C	 0.0584269822	-3.1392635898	 0.6257448199	-0.453593
O	 2.0615569166	-2.5601141665	 1.8985590781	-0.469617
H	 0.747021939	 1.9967525337	 0.1844715386	 0.126994
H	-0.7546924355	 1.8588382859	-0.7428431837	 0.122278
H	-0.7673985095	 1.5903546764	 1.0152314219	 0.117896
H	-0.8863448766	-0.5655850891	-0.2061167312	 0.098831
H	 1.9829216259	-0.6142333982	-3.278466082	 0.193319
H	 1.7855739404	-0.1750875456	 1.2694388343	 0.103227
H	 0.5107206631	-0.8875521591	 3.2800106439	 0.111145
H	-1.0069546785	-1.1102913616	 2.2819002652	 0.104495
H	-0.905963913	-2.7634490785	 0.274914189	 0.11734
H	 0.6459386063	-3.4503616108	-0.242985538	 0.137681
H	-0.1424321962	-4.0269012233	 1.2386795479	 0.104956
H	 1.8976917151	-3.272508764	 2.5270209951	 0.277558
53.1326	96.6996	160.3821	189.2085	214.3371	233.3131	264.7806	295.6602	313.3864	371.7265	398.5636	423.8312	504.0707	521.4727	563.1017	627.7843	630.9374	720.6475	789.4236	866.8883	901.2949	922.1123	956.9277	976.6726	1037.7474	1048.0213	1064.1441	1087.9704	1107.2058	1120.0351	1191.1772	1234.448	1283.7991	1301.193	1325.2357	1362.736	1402.4773	1415.187	1422.82	1478.155	1486.4783	1491.9137	1498.6942	1509.1316	2233.3003	3014.6416	3026.9254	3042.2427	3092.8048	3117.7533	3120.2481	3122.4651	3123.7263	3152.0953	3214.4846	3505.4556	3788.0687
CC(C#C)C1CC1(C)O	C[C@@H](C#C)[C@H]1C[C@]1(C)O	
InChI=1S/C8H12O/c1-4-6(2)7-5-8(7,3)9/h1,6-7,9H,5H2,2-3H3	InChI=1S/C8H12O/c1-4-6(2)7-5-8(7,3)9/h1,6-7,9H,5H2,2-3H3/t6-,7+,8-/m0/s1
