17
gdb 35292	3.48933	0.93943	0.8473	2.5969	73.87	-0.2481	-0.0057	0.2424	1370.6939	0.135242	-417.955494	-417.946914	-417.945969	-417.989829	30.8	
N	-0.1240194986	-1.0912686053	 0.3658813996	-0.325964
C	 0.0067006699	 0.0561360349	 0.3166698169	 0.301363
C	 0.1363175279	 1.4964721938	 0.2352699224	-0.10589
O	 0.9630831733	 2.1246154972	 1.2150692302	-0.228355
C	 1.4143983847	 2.1373127099	-0.141548103	 0.083779
C	 2.6613268286	 1.35219582	-0.4619866533	-0.198958
N	 3.8330614628	 2.1640350876	-0.164244937	-0.074819
C	 4.3315740673	 2.0843229806	 1.2088977205	-0.214551
C	 5.0704521268	 1.4327797582	 0.0935030398	-0.223358
H	-0.7967462009	 2.0119143848	 0.0151959076	 0.142833
H	 1.3474630906	 3.1144854068	-0.6195333211	 0.120907
H	 2.6420891159	 0.3974593987	 0.0894197552	 0.112492
H	 2.6668430296	 1.1174912348	-1.5339169566	 0.121062
H	 4.685945789	 3.0190595093	 1.6324251526	 0.122289
H	 3.7989914393	 1.4398626712	 1.9046089779	 0.127621
H	 5.0399931019	 0.3456692022	 0.0432603129	 0.117026
H	 5.9729404022	 1.8821159552	-0.3099288046	 0.122522
56.877	79.4121	100.3683	191.6602	232.9984	334.9165	362.7985	385.9037	491.065	578.7103	609.2582	768.7428	813.1067	823.1741	837.3721	902.6994	955.7368	995.9775	1028.2895	1043.0336	1064.8831	1111.3313	1120.7231	1131.1034	1147.6654	1174.4157	1196.4704	1277.3144	1286.4404	1322.9635	1348.2767	1390.7876	1465.0681	1476.4403	1494.9495	1523.9801	2359.9837	2971.5307	3051.3646	3100.5132	3110.723	3122.2154	3136.0359	3185.7468	3201.5666
N#CC1OC1CN1CC1	N#C[C@H]1O[C@H]1CN1CC1	
InChI=1S/C6H8N2O/c7-3-5-6(9-5)4-8-1-2-8/h5-6H,1-2,4H2	InChI=1S/C6H8N2O/c7-3-5-6(9-5)4-8-1-2-8/h5-6H,1-2,4H2/t5-,6+/m1/s1
