18
gdb 60990	2.29594	1.28424	0.94405	2.8513	79.09	-0.2416	-0.0242	0.2174	1265.9358	0.143674	-401.889215	-401.879415	-401.878471	-401.924993	34.964	
C	 0.106461526	 1.3886084176	-0.3419322277	-0.396571
C	 0.1372523248	-0.0737845499	 0.1021215839	-0.042516
C	 0.8021585983	-0.2266400258	 1.4693205365	 0.169096
O	 1.7716281103	 0.396752073	 1.8139672887	-0.25047
N	-1.2183493871	-0.6164383034	 0.1835012888	-0.097798
C	-1.824921114	-1.0809864396	-1.051035571	-0.242205
C	-1.4126274185	-2.0729222442	-0.0051212819	-0.184581
C	-0.3063885612	-2.9590167682	-0.2433250947	 0.332633
C	 0.6186941558	-3.7127819028	-0.3975290329	-0.45769
H	 1.1102178142	 1.8109956957	-0.2649984426	 0.14337
H	-0.238439065	 1.4739044464	-1.3759866696	 0.115587
H	-0.5672421749	 1.9664197447	 0.2969074533	 0.132035
H	 0.7684950283	-0.6490873375	-0.5992444485	 0.105244
H	 0.3262535158	-0.9798107799	 2.1345916588	 0.089116
H	-2.877952167	-0.8500943486	-1.1853064427	 0.127105
H	-1.2249417831	-1.0577477947	-1.9588570215	 0.125788
H	-2.1856617118	-2.4820001949	 0.6407118894	 0.124346
H	 1.431156849	-4.380865918	-0.5454259463	 0.20751
29.2244	67.5121	114.4483	170.4478	212.5726	227.4449	269.5583	285.7959	400.7352	419.1609	521.6855	560.9156	609.2736	639.6275	671.9031	759.3825	802.5272	862.2571	914.524	923.4989	1002.1173	1032.9407	1063.7249	1116.2979	1126.6076	1138.5032	1157.4728	1170.4454	1313.3481	1321.225	1334.9169	1370.8491	1395.9222	1421.1023	1487.8318	1499.3789	1502.0103	1835.6218	2231.7325	2897.9721	2943.1731	3050.3431	3099.1474	3121.8984	3135.0058	3142.505	3190.1803	3500.892
CC(C=O)N1CC1C#C	C[C@@H](C=O)N1C[C@H]1C#C	
InChI=1S/C7H9NO/c1-3-7-4-8(7)6(2)5-9/h1,5-7H,4H2,2H3	InChI=1S/C7H9NO/c1-3-7-4-8(7)6(2)5-9/h1,5-7H,4H2,2H3/t6-,7+,8?/m0/s1
