21
gdb 26148	2.46665	1.2528	1.01891	1.1508	85.49	-0.1922	0.0544	0.2466	1287.5065	0.183045	-383.312182	-383.302183	-383.301239	-383.348172	36.804	
C	-0.000075467	 1.5687860828	-0.024293829	-0.37419
C	-0.0173942757	 0.0300783313	 0.0335967507	-0.090023
C	 0.8039728903	-0.4784439415	 1.232780713	-0.374185
C	-1.4217758515	-0.514489503	 0.0450248522	 0.280489
C	-1.9866499446	-1.329198841	-0.9199360068	 0.122564
N	-1.5134147517	-1.8887522416	-2.1333979229	-0.618064
N	-3.2797769552	-1.6020930359	-0.5372888352	-0.241478
C	-3.558095116	-0.9818548593	 0.6501802964	-0.087138
C	-2.4277734775	-0.300265575	 1.0369471816	-0.256834
H	 1.026225562	 1.9492876602	-0.0754355654	 0.102032
H	-0.5472846346	 1.9378796424	-0.8970026886	 0.10865
H	-0.4716763562	 1.9974729214	 0.8667507101	 0.114305
H	 0.4665684713	-0.3411892632	-0.8805894333	 0.048011
H	 0.8312508961	-1.5720162932	 1.2581833306	 0.108645
H	 1.8347950033	-0.1094469817	 1.1887433832	 0.102032
H	 0.3665917487	-0.1369986536	 2.1773721595	 0.114306
H	-0.7122866355	-2.4935887408	-1.9853573882	 0.242529
H	-1.2302159642	-1.1741594058	-2.7957438794	 0.242531
H	-3.8998582069	-2.178527449	-1.0795011022	 0.256858
H	-4.5251169952	-1.0746015679	 1.1175495995	 0.112903
H	-2.3299735599	 0.2903273343	 1.9358016144	 0.086055
25.0767	49.5825	138.5392	172.955	230.8721	251.6899	254.928	285.6238	394.7364	412.3618	509.2144	522.1364	604.2395	645.9304	688.4156	726.4705	732.4584	795.6752	825.0724	880.7317	921.1531	927.4959	959.565	1057.625	1064.2948	1109.1937	1123.2244	1157.3362	1199.2571	1206.6283	1262.4116	1313.7492	1345.5883	1357.4798	1395.1399	1416.8499	1439.5109	1483.7565	1485.1535	1489.9515	1496.7343	1501.6061	1513.4235	1613.6953	1662.1351	3001.098	3024.816	3029.3642	3090.7746	3097.1261	3103.1887	3105.7873	3235.3602	3267.234	3499.8139	3563.3666	3679.7211
CC(C)C1=C(N)NC=C1	CC(C)c1c(N)[nH]cc1	
InChI=1S/C7H12N2/c1-5(2)6-3-4-9-7(6)8/h3-5,9H,8H2,1-2H3	InChI=1S/C7H12N2/c1-5(2)6-3-4-9-7(6)8/h3-5,9H,8H2,1-2H3
