14
gdb 127718	3.50719	1.32241	0.96728	7.5876	72.65	-0.242	-0.0138	0.2282	1135.0554	0.102195	-429.062454	-429.054121	-429.053177	-429.095511	29.65	
C	-0.0481572417	 1.427717611	-0.0272080367	-0.348792
N	-0.0023833794	-0.0158058638	 0.0438999882	 0.003904
N	 0.0113814472	-0.7757264333	-1.1032948321	-0.145157
N	 0.0244940282	-2.0131469901	-0.7548085831	-0.251068
C	 0.0307497855	-2.0993881799	 0.6144114531	 0.177959
C	 0.0569798765	-3.300679926	 1.355467744	 0.217521
N	 0.0837947138	-4.2445863704	 2.0278795592	-0.353449
C	 0.0127505742	-0.8080613608	 1.1345612146	 0.277606
N	-0.0664594803	-0.3435253617	 2.4241800369	-0.616672
H	 0.8844993388	 1.8732359938	 0.3352854008	 0.146261
H	-0.1842595577	 1.6930206144	-1.0753769642	 0.182744
H	-0.8871516287	 1.8106741913	 0.561022719	 0.15813
H	 0.0839079271	-1.058680107	 3.1226971135	 0.283704
H	 0.4506789065	 0.5003394126	 2.6273460168	 0.267311
111.7889	123.8345	131.2124	224.3204	259.9338	286.127	305.4394	416.268	529.3047	544.521	591.1582	612.5843	686.3988	747.2015	763.8688	777.2593	988.3669	1032.8103	1152.6692	1211.7712	1227.1332	1250.4016	1362.8176	1396.0782	1443.3759	1485.9409	1504.7166	1551.6192	1611.8077	1665.6287	2339.3361	3039.2429	3105.3269	3165.4455	3557.8448	3654.8021
CN1N=NC(C#N)=C1N	Cn1nnc(C#N)c1N	
InChI=1S/C4H5N5/c1-9-4(6)3(2-5)7-8-9/h6H2,1H3	InChI=1S/C4H5N5/c1-9-4(6)3(2-5)7-8-9/h6H2,1H3
