19
gdb 37500	3.66875	1.96751	1.71188	0.2588	81.79	-0.2273	0.0199	0.2472	853.8041	0.164106	-348.729045	-348.723448	-348.722504	-348.758506	25.674	
C	-0.0819354157	 1.5683246555	-0.0439266886	-0.251871
C	 1.4516130075	 1.5169604612	 0.0045268	-0.042613
C	 1.3934654831	 0.1947384509	 0.8270655822	-0.035796
C	 2.5315368851	-0.4429417314	-0.0519563405	-0.062908
C	 2.2490000043	-1.8297279774	-0.5539613352	-0.093583
C	 1.1745621455	-1.7622728713	-1.3475683256	-0.106469
C	 0.6717985423	-0.337609959	-1.3660643525	-0.046845
C	 0.0425608166	 0.0220798376	 0.0218498703	-0.034851
C	 1.9477789479	 0.5327291536	-1.1192164132	-0.049844
H	-0.5033716564	 2.0015576219	 0.8684799031	 0.093615
H	-0.5794623638	 1.9991384248	-0.9200846683	 0.086028
H	 2.0881215489	 2.3622880446	 0.2628226078	 0.061284
H	 1.3670531902	 0.1424391027	 1.9142733416	 0.063318
H	 3.5327580697	-0.2232208278	 0.321322552	 0.059748
H	 2.7818220354	-2.7234319578	-0.2524240916	 0.092884
H	 0.6566412205	-2.5912562314	-1.8149453785	 0.090831
H	 0.0389821758	-0.0608009079	-2.2113525577	 0.058842
H	-0.7694188429	-0.6121839249	 0.3767002715	 0.058721
H	 2.5271241859	 0.8507633961	-1.9867507567	 0.059508
322.4517	364.4782	409.2642	507.9792	620.0261	686.8352	732.2948	759.2826	806.4118	807.5624	834.9515	839.513	855.7451	888.3049	928.3441	932.4959	940.4916	957.1335	968.4503	991.2427	1004.1084	1012.433	1049.3258	1074.0823	1088.5228	1122.6665	1130.7317	1149.5345	1177.2775	1205.3427	1214.9703	1238.2465	1245.9925	1274.8488	1278.1342	1289.3656	1298.0853	1324.0489	1363.162	1497.0254	1644.7244	3033.1081	3087.6732	3091.2465	3101.2742	3109.0952	3114.3707	3121.0446	3133.3469	3190.7259	3216.3621
C1C2C3C4C=CC(C13)C24	C1[C@H]2[C@@H]3[C@H]4C=C[C@@H]([C@H]13)[C@@H]24	
InChI=1S/C9H10/c1-2-5-8-4(1)6-3-7(8)9(5)6/h1-2,4-9H,3H2	InChI=1S/C9H10/c1-2-5-8-4(1)6-3-7(8)9(5)6/h1-2,4-9H,3H2/t4-,5-,6-,7+,8+,9+/m0/s1
