18
gdb 88698	3.42944	0.98003	0.83953	3.953	77.92	-0.2799	-0.0009	0.2791	1383.509	0.146496	-401.925018	-401.916054	-401.91511	-401.95952	32.604	
C	-0.0232225284	 1.5596251932	-0.0902644358	-0.40923
C	 0.0452031043	 0.0518251001	 0.0189407245	 0.002767
C	 1.3203858519	-0.696717319	-0.2583765602	-0.304065
C	 0.7610376394	-0.6635448494	 1.1499073463	-0.046379
C	 1.4857063067	 0.0839433406	 2.2097496359	 0.069465
O	 0.8180323291	 0.2846830439	 3.4610217368	-0.237762
C	 1.9713624488	-0.5567458201	 3.4559761164	-0.118721
C	 1.7502121608	-1.9647490367	 3.7085545533	 0.313032
N	 1.5989001279	-3.0924705067	 3.9123292921	-0.334481
H	 0.9249782518	 2.0369893677	 0.1745569122	 0.114265
H	-0.2578199884	 1.8571699162	-1.1177399469	 0.123875
H	-0.7984686155	 1.9727140228	 0.5636564599	 0.130658
H	-0.8653485213	-0.4495759862	-0.2981318	 0.097864
H	 1.2868405185	-1.6371703664	-0.7960277994	 0.124803
H	 2.2106855372	-0.1061252804	-0.4543582974	 0.114042
H	 0.2918239691	-1.5742583751	 1.5077692422	 0.114901
H	 2.0632049623	 0.9490406347	 1.8832824617	 0.107288
H	 2.8474123356	-0.149609119	 3.9583089185	 0.137676
41.7274	95.631	141.6702	202.9388	215.2955	251.9281	334.7993	363.4077	416.2066	519.3906	583.1006	620.533	772.4003	778.5698	843.6786	857.4435	888.4862	919.3079	967.9738	998.1001	1033.0437	1068.2791	1076.3869	1108.8228	1137.9436	1149.9728	1194.7697	1195.9427	1248.8768	1278.5656	1325.5842	1389.0808	1401.615	1424.1702	1473.2654	1492.7995	1494.5782	1508.9942	2359.2314	3034.4417	3096.8798	3100.3156	3112.4152	3129.0127	3130.1163	3143.3033	3166.4203	3217.0463
CC1CC1C1OC1C#N	C[C@H]1C[C@H]1[C@H]1O[C@H]1C#N	
InChI=1S/C7H9NO/c1-4-2-5(4)7-6(3-8)9-7/h4-7H,2H2,1H3	InChI=1S/C7H9NO/c1-4-2-5(4)7-6(3-8)9-7/h4-7H,2H2,1H3/t4-,5+,6-,7+/m0/s1
