18
gdb 28431	3.1154	1.30644	0.92661	1.3727	85.47	-0.1843	0.0143	0.1987	1246.2208	0.148514	-402.024624	-402.01581	-402.014866	-402.058242	33.806	
C	-0.0180637362	 1.5210030073	 0.0415377516	-0.493959
C	 0.0145675715	 0.0129031109	-0.0005952843	 0.314755
C	-0.0582180293	-0.6880117572	-1.2012446854	-0.209985
C	-0.0212646792	-2.0820575116	-1.2266362243	-0.177999
C	 0.0897526137	-2.8251275313	-0.0531088777	 0.217639
N	 0.1881263935	-4.2194906791	-0.0424205029	-0.594427
C	 0.1583249516	-2.1169584258	 1.1616787371	 0.352736
O	 0.2519043448	-2.8836515288	 2.2970656968	-0.463943
C	 0.1221485954	-0.7315383452	 1.1817699019	-0.336239
H	 0.9107775941	 1.9361745148	 0.4511729231	 0.12452
H	-0.1522779706	 1.9395362624	-0.9596009353	 0.120116
H	-0.8370390937	 1.8923035445	 0.6690286079	 0.122189
H	-0.1457739476	-0.1429691619	-2.1359115528	 0.081891
H	-0.0766762152	-2.6076259602	-2.175761226	 0.07924
H	-0.2815416848	-4.673086919	-0.8127088369	 0.242088
H	-0.0648546927	-4.6298904811	 0.8453349237	 0.255516
H	 0.2610162582	-2.3049595228	 3.0654603556	 0.295634
H	 0.1747733865	-0.2179276959	 2.1403537776	 0.07023
38.3795	142.75	223.9974	288.442	306.3729	311.3525	314.5668	362.146	447.7837	455.0676	506.9857	579.3667	599.4764	649.164	733.5194	741.6663	798.2457	822.423	849.7749	906.7777	954.6131	1019.5077	1059.6505	1094.3487	1159.53	1179.9295	1197.7201	1294.9646	1321.3298	1345.1612	1381.0307	1413.2129	1466.0786	1484.4388	1502.4391	1565.4268	1631.6595	1640.8673	1670.2569	3021.615	3069.7731	3108.8961	3135.5636	3160.3575	3179.8501	3558.5723	3660.5141	3834.327
CC1=CC=C(N)C(O)=C1	Cc1ccc(N)c(O)c1	
InChI=1S/C7H9NO/c1-5-2-3-6(8)7(9)4-5/h2-4,9H,8H2,1H3	InChI=1S/C7H9NO/c1-5-2-3-6(8)7(9)4-5/h2-4,9H,8H2,1H3
