19
gdb 72307	2.30478	1.92845	1.53228	1.222	82.4	-0.2084	-0.0351	0.1733	974.208	0.158173	-385.786847	-385.77877	-385.777825	-385.81862	32.553	
C	 0.0262320501	 1.4369146595	 0.0320579322	-0.48634
C	-0.0746006318	-0.062830626	-0.1203492356	 0.278614
C	 0.8368178215	-0.7842634234	-1.1371313873	-0.316911
C	 0.3108821056	-2.2067737511	-1.0023873666	-0.094596
C	-0.8577488095	-2.1981032503	-0.3279278561	-0.037691
C	-0.7542237526	-2.3938170667	 1.1970676522	-0.273493
C	-0.6855711768	-0.8238416923	 1.1778396139	-0.192348
C	-1.3766830309	-0.7486900959	-0.1545431129	 0.338971
O	-2.5684048228	-0.196351054	-0.5737415693	-0.470116
H	 0.9825692998	 1.7308830201	 0.4788380892	 0.11572
H	-0.0471257571	 1.9239425622	-0.9470350937	 0.123031
H	-0.77928315	 1.8350647434	 0.6549218336	 0.124473
H	 0.767437749	-0.2954135684	-2.1205557216	 0.111201
H	 1.900703557	-0.7883685043	-0.8656472108	 0.108068
H	 1.0108551515	-3.0362099174	-0.9359023957	 0.095475
H	-1.6594919967	-2.7117376257	 1.7290591887	 0.09816
H	 0.105706294	-2.9673970592	 1.5536675922	 0.101694
H	-0.8641264103	-0.2014713941	 2.0515738898	 0.090105
H	-3.29316546	-0.7135830762	-0.2044865123	 0.285983
188.0387	195.6928	215.3237	260.7846	282.8869	318.3889	327.8221	451.0366	511.2073	534.7026	587.0839	628.9961	710.1047	779.133	806.7632	851.4848	902.2423	915.9113	921.5977	961.2292	987.8907	1006.7118	1035.73	1069.3649	1081.358	1093.1126	1154.5838	1180.1373	1207.9356	1223.047	1237.2744	1280.024	1305.5056	1334.1686	1414.7846	1457.6653	1476.1493	1488.7798	1500.1721	1509.0095	1587.1966	2991.722	3018.8524	3029.2371	3038.8732	3085.9716	3090.856	3111.6887	3139.048	3151.9995	3790.5753
CC12CC=C3CC1C23O	C[C@@]12C[CH][C]3C[C@@H]1[C@@]23O	
InChI=1S/C8H10O/c1-7-3-2-5-4-6(7)8(5,7)9/h2,6,9H,3-4H2,1H3	InChI=1S/C8H10O/c1-7-3-2-5-4-6(7)8(5,7)9/h2,6,9H,3-4H2,1H3/t6-,7+,8+/m0/s1
