21
gdb 57277	2.26589	1.35089	1.22831	3.1815	82.85	-0.2337	0.0369	0.2706	1183.8859	0.18177	-383.268141	-383.258464	-383.25752	-383.302286	36.043	
C	-0.0673185426	 1.5175842882	-0.0731843806	-0.404572
C	-0.0350602272	-0.0151826386	 0.0638185585	 0.103584
C	 0.7941566107	-0.4317400589	 1.2918510622	-0.404571
C	-1.434340875	-0.5078663862	 0.2433340665	 0.256162
N	-2.5095589789	-0.927520905	 0.3226227958	-0.35684
N	 0.5658834277	-0.5873389112	-1.1324987282	-0.068817
C	-0.0792318985	-0.4261865435	-2.4577041466	-0.176248
C	 0.4283313323	-1.8388907802	-2.8329564369	-0.232544
C	 0.6413387837	-2.0566830239	-1.3159320497	-0.176248
H	 0.9546267995	 1.8812280014	-0.2076910026	 0.130364
H	-0.6648517121	 1.8247804964	-0.9350103006	 0.135182
H	-0.4986293551	 1.9755810652	 0.8203306522	 0.131582
H	 0.3748641804	-0.0009277106	 2.2044044874	 0.131582
H	 0.8126025473	-1.5183737334	 1.4060716677	 0.135182
H	 1.8193537782	-0.0754554844	 1.1624938954	 0.130364
H	-1.1772461188	-0.3833361097	-2.4042298714	 0.112266
H	 0.2854898229	 0.4243447831	-3.041379112	 0.105825
H	-0.2802750772	-2.5004061068	-3.3304255632	 0.114619
H	 1.3647689479	-1.8168652629	-3.3924873795	 0.115034
H	 1.5818257461	-2.5089847391	-0.9872846669	 0.105825
H	-0.1994058911	-2.5959788798	-0.8548038175	 0.112266
94.5362	107.4529	172.5491	182.098	208.5795	229.5819	259.5469	306.7213	327.7205	401.9833	434.5415	558.0388	586.2664	627.6712	720.3509	765.3599	852.4325	914.9007	938.9331	944.9683	950.8021	987.1231	1015.4627	1089.5352	1116.2964	1137.9323	1158.1652	1202.8485	1216.5266	1226.2327	1243.2573	1251.0292	1273.0565	1302.7114	1351.6824	1394.7798	1415.3783	1477.1923	1485.845	1489.4373	1493.849	1504.0701	1508.7014	1529.3578	2333.0508	2992.054	2998.995	3048.346	3052.1919	3070.7452	3072.3603	3091.5304	3128.2857	3130.3158	3130.5053	3135.7367	3148.0165
CC(C)(C#N)N1CCC1	CC(C)(C#N)N1CCC1	
InChI=1S/C7H12N2/c1-7(2,6-8)9-4-3-5-9/h3-5H2,1-2H3	InChI=1S/C7H12N2/c1-7(2,6-8)9-4-3-5-9/h3-5H2,1-2H3
