15
gdb 112407	2.27275	1.50929	0.95447	2.4883	64.03	-0.2761	-0.0128	0.2633	1160.5994	0.113713	-491.139558	-491.131463	-491.130519	-491.172849	29.562	
O	 0.0580208552	 1.3896566315	-0.0745392719	-0.415446
C	 0.0556975597	-0.0118037993	 0.0580441113	-0.062969
C	-1.3666169024	-0.5688913454	 0.0785231797	 0.011978
O	-2.0151634889	-0.2536253114	-1.1749360461	-0.25864
C	-2.4138697639	-1.3891626546	-1.8071279708	 0.491636
O	-2.9612849992	-1.4254992095	-2.8678055971	-0.371374
N	-2.0660101647	-2.4656342744	-0.99526004	-0.421358
C	-1.4270791392	-2.0829110898	 0.172719309	 0.379225
N	-0.9525761961	-2.7502144904	 1.1380853724	-0.534741
H	-0.3771662076	 1.6007058218	-0.9084695659	 0.298029
H	 0.6218518155	-0.507271162	-0.7462269601	 0.09891
H	 0.5351309334	-0.2576455585	 1.0090894044	 0.145706
H	-1.9388876245	-0.0945157674	 0.8810580719	 0.139149
H	-2.2678585977	-3.411119567	-1.2773321471	 0.277786
H	-1.0763050696	-3.7559537735	 1.0183483203	 0.222109
77.6114	120.7632	141.4836	177.2276	312.3349	393.9956	422.8854	447.7271	514.2246	588.9876	626.885	648.1547	706.2133	769.5093	864.6811	869.8875	968.614	980.4692	1056.1634	1088.752	1093.7646	1117.5921	1189.9782	1222.2669	1287.0431	1348.7047	1361.2608	1391.3835	1400.688	1419.2327	1493.2032	1780.8208	1912.9855	2987.8898	3080.3825	3109.3443	3476.6299	3660.3584	3803.9502
OCC1OC(=O)NC1=N	OC[C@H]1OC(=O)N[C]1[NH]	
InChI=1S/C4H6N2O3/c5-3-2(1-7)9-4(8)6-3/h2,7H,1H2,(H2,5,6,8)	InChI=1S/C4H6N2O3/c5-3-2(1-7)9-4(8)6-3/h2,7H,1H2,(H2,5,6,8)/t2-/m1/s1
