16
gdb 12893	2.66246	2.37667	1.75296	1.274	59.5	-0.2333	0.0709	0.3041	801.0075	0.130682	-420.846608	-420.83939	-420.838446	-420.877676	28.107	
O	-0.0383651094	 1.391491129	-0.0194707693	-0.427685
C	-0.0761043133	 0.0026113338	-0.0570227954	 0.026796
C	-0.4781778853	-0.7511441888	 1.1939551553	-0.028196
O	-1.0216597751	 0.0924191442	 2.1800070455	-0.274676
C	-2.4414741071	 0.1866837342	 1.9413214152	-0.074888
C	-2.6260544951	 0.0555998164	 0.4174205398	-0.312121
C	-1.3947717052	-0.755589259	-0.0007483175	 0.309144
O	-1.5495367018	-1.931203399	-0.7324911555	-0.464729
H	-0.1683541419	 1.6309635811	 0.9097767918	 0.295549
H	 0.7003022838	-0.441806485	-0.6757561698	 0.10153
H	 0.0543783421	-1.6267578456	 1.5504276812	 0.108481
H	-2.952470582	-0.6301854551	 2.4689713187	 0.108685
H	-2.7790485642	 1.139085337	 2.3575742684	 0.112499
H	-3.5343174602	-0.4918182944	 0.1569957278	 0.113609
H	-2.6450820792	 1.0353321915	-0.0689698603	 0.119206
H	-1.5851487462	-1.6985102603	-1.6669999357	 0.286796
141.9337	201.2511	246.3311	285.2011	340.5205	370.3457	458.6401	515.9976	584.8611	630.8625	658.5143	760.467	834.8527	866.0456	918.3676	953.4073	979.4686	1000.673	1041.9664	1083.9016	1121.1898	1145.4154	1195.838	1233.6505	1241.9448	1262.6828	1302.006	1312.426	1330.2817	1376.3996	1397.0536	1451.8204	1481.9293	1517.2488	3013.3049	3059.9091	3099.0907	3121.5185	3138.3271	3166.3521	3726.7492	3793.9727
OC1C2OCCC12O	O[C@H]1[C@H]2OCC[C@@]12O	
InChI=1S/C5H8O3/c6-3-4-5(3,7)1-2-8-4/h3-4,6-7H,1-2H2	InChI=1S/C5H8O3/c6-3-4-5(3,7)1-2-8-4/h3-4,6-7H,1-2H2/t3-,4+,5+/m0/s1
