21
gdb 86426	2.35679	1.71074	1.1986	2.0183	78.11	-0.244	0.078	0.3219	1116.8415	0.183098	-424.225682	-424.217182	-424.216238	-424.258544	32.795	
C	-0.3107937525	 1.5820242664	-0.1116941034	-0.416283
C	 0.0664235231	 0.1144936196	-0.0064101258	 0.134721
O	 0.9035783262	-0.2404392173	-1.1041107217	-0.27752
C	 1.4791417541	-1.5115489422	-0.7984238089	 0.116087
C	 2.6775582589	-1.755258888	-1.6963946533	-0.409951
C	 1.7811487802	-1.449461262	 0.7070150496	 0.103012
O	 2.9638401388	-0.688848931	 1.0249425294	-0.287186
C	 2.1790076059	 0.4081034757	 1.5377640233	-0.081106
C	 0.8542550177	-0.3259734542	 1.2374431096	-0.111526
H	 0.5741093258	 2.2229380977	-0.078326443	 0.126551
H	-0.8284117391	 1.7700521589	-1.0561524965	 0.130109
H	-0.9786077573	 1.8641453954	 0.7082182428	 0.115384
H	-0.8557620681	-0.4941034237	-0.043999649	 0.063196
H	 0.7184219125	-2.2993091167	-0.9499709812	 0.058593
H	 3.46490929	-1.0342617313	-1.4680064826	 0.140506
H	 3.0714119427	-2.76450467	-1.5412731089	 0.11368
H	 2.3900417874	-1.6540517655	-2.7460481319	 0.122937
H	 1.7870992348	-2.4327456431	 1.1887763799	 0.073022
H	 2.3808717302	 0.5852083868	 2.6010045161	 0.099779
H	 2.3590025856	 1.3339820054	 0.9799662829	 0.107351
H	 0.2216605534	-0.536206091	 2.0997697927	 0.078645
114.0376	143.1018	208.4232	213.5641	228.6796	248.8494	316.2724	395.8545	509.8328	524.8754	601.7007	697.6915	777.5616	830.5257	868.9313	873.187	913.0239	938.0279	979.0048	998.5846	1012.3902	1031.5829	1072.9713	1101.6309	1130.8919	1136.6205	1149.8768	1171.5093	1198.9807	1215.3551	1245.2555	1319.2318	1325.8778	1332.4497	1355.3013	1368.4794	1383.5986	1399.7472	1407.2337	1420.1291	1483.6914	1485.7162	1498.1565	1501.563	1520.5339	2927.6152	2936.1229	3020.9916	3046.3542	3049.1811	3055.9559	3066.0754	3113.3959	3118.1782	3119.1217	3124.9168	3142.1761
CC1OC(C)C2OCC12	C[C@H]1O[C@@H](C)[C@H]2OC[C@@H]12	
InChI=1S/C7H12O2/c1-4-6-3-8-7(6)5(2)9-4/h4-7H,3H2,1-2H3	InChI=1S/C7H12O2/c1-4-6-3-8-7(6)5(2)9-4/h4-7H,3H2,1-2H3/t4-,5+,6+,7-/m1/s1
