19
gdb 110686	4.94774	1.11262	1.06647	1.5413	75.34	-0.2344	0.0935	0.328	1181.0468	0.160359	-422.966005	-422.958521	-422.957577	-422.998128	29.205	
C	-0.2595910465	 1.2768513213	 0.1051018438	-0.241149
O	 0.3761793584	 0.0409948514	-0.136185059	-0.251621
C	 0.8704852983	-0.5624997866	 1.0278593542	 0.151234
C	-0.0959272169	-1.3890449079	 1.9154032914	-0.142307
C	-0.1354628235	-2.4921721803	 0.7962903527	-0.054474
C	-0.1714997834	-3.8316971113	 1.5177541879	-0.109894
O	 0.7365764923	-3.5787971553	 2.6045465313	-0.282776
C	 1.1266785513	-2.2405507132	 2.3657486349	 0.141428
C	 1.358630479	-2.0040313869	 0.8442396346	-0.140808
H	 0.4206970718	 1.9951829977	 0.5888639289	 0.105481
H	-0.5654973376	 1.6796094662	-0.8633113074	 0.127923
H	-1.1504438273	 1.1655248585	 0.7411139872	 0.107313
H	 1.5438914314	 0.1256737862	 1.5617419466	 0.06039
H	-0.9254272343	-1.0501961195	 2.5368274188	 0.071972
H	-0.7290260667	-2.3421601427	-0.1014621682	 0.089269
H	-1.1634534267	-4.090100559	 1.9090796323	 0.102149
H	 0.1956617717	-4.6661937577	 0.9074638491	 0.103364
H	 1.830153424	-1.9013460821	 3.1247388628	 0.086174
H	 2.1886551147	-2.3592568489	 0.2334407783	 0.076332
86.1094	167.4353	178.8686	276.5887	305.699	365.2759	478.2685	542.4937	721.427	737.5215	742.0516	792.6198	875.5853	929.9483	952.4517	957.5393	958.5072	989.114	990.6411	1032.1533	1048.3984	1073.3864	1117.6429	1126.4475	1144.2634	1159.4146	1166.8634	1184.7595	1209.184	1210.7983	1229.552	1259.5713	1270.621	1285.5136	1320.852	1379.7985	1416.182	1484.389	1488.5838	1509.8615	1521.4791	2974.5171	2986.4807	3017.783	3024.4401	3055.456	3108.1046	3115.1164	3116.3689	3139.7937	3163.6347
COC1C2C3COC2C13	CO[C@H]1[C@H]2[C@@H]3CO[C@H]2[C@H]13	
InChI=1S/C7H10O2/c1-8-6-4-3-2-9-7(4)5(3)6/h3-7H,2H2,1H3	InChI=1S/C7H10O2/c1-8-6-4-3-2-9-7(4)5(3)6/h3-7H,2H2,1H3/t3-,4+,5-,6-,7+
