17
gdb 48996	2.16419	1.97326	1.32161	2.6316	74.44	-0.2374	-0.0413	0.1962	996.8601	0.135676	-421.799597	-421.791869	-421.790925	-421.831986	29.328	
O	-0.0345402194	-0.1029581023	 0.0017698361	-0.247825
C	 0.0140043566	 1.0809778122	 0.2162526281	 0.122259
C	 1.261197412	 1.9284196152	 0.0351145419	 0.306803
C	 2.5682210046	 1.1233261744	-0.0237331888	-0.295351
C	 2.8452757291	 1.0485275536	-1.5651797016	-0.250421
C	 2.2240357262	 2.3439179156	-2.0877951128	-0.194786
C	 1.3147932903	 2.764458337	-1.2182367126	 0.158378
C	 0.8115578854	 3.934909439	-0.4136917701	-0.17357
O	 1.110020344	 3.1756539771	 0.8028364456	-0.346618
H	-0.872891956	 1.6568398897	 0.5611259737	 0.085263
H	 3.3563503981	 1.7012554837	 0.4668169719	 0.119943
H	 2.4923410203	 0.1411458222	 0.4459776318	 0.117902
H	 3.9155600337	 1.0017919522	-1.7897276913	 0.111351
H	 2.38919861	 0.1526494458	-2.0030003415	 0.132671
H	 2.5851748973	 2.8683742069	-2.9644907953	 0.108967
H	 1.3849585585	 4.8648026834	-0.4826266422	 0.128074
H	-0.2604035809	 4.1579067543	-0.4823044129	 0.116959
82.7949	130.7295	218.6317	255.4832	276.1069	343.4096	440.9685	494.7455	563.4723	653.7465	759.0271	770.1613	825.2261	868.5247	890.6512	904.101	934.0487	952.7483	989.4114	1007.9437	1044.0642	1094.8242	1125.2347	1138.5954	1183.1174	1200.1747	1234.5729	1274.5999	1291.7156	1322.1435	1326.8753	1400.528	1466.9081	1489.936	1511.9403	1741.4023	1821.5798	2894.9834	3022.3856	3039.0101	3068.0184	3080.6575	3082.428	3132.4791	3204.8065
O=CC12CCC=C1CO2	O=C[C@@]12CC[CH][C]1CO2	
InChI=1S/C7H8O2/c8-5-7-3-1-2-6(7)4-9-7/h2,5H,1,3-4H2	InChI=1S/C7H8O2/c8-5-7-3-1-2-6(7)4-9-7/h2,5H,1,3-4H2/t7-/m0/s1
