15
gdb 43712	4.85361	1.21004	1.09005	4.641	65.68	-0.2571	0.0034	0.2605	1070.2771	0.11223	-457.710496	-457.703694	-457.70275	-457.741856	26.694	
O	 0.1587224885	 0.1200045416	-0.6906649123	-0.309053
C	-0.0250383524	 1.1503037511	-0.1315987366	 0.428788
C	-1.2029047718	 2.0462832152	 0.2567258789	-0.531572
C	-0.0999177912	 2.9247890469	 0.8556225444	 0.534941
O	 0.9155242495	 1.9858195525	 0.4279251691	-0.271293
C	 0.1520101389	 4.435700215	 0.687257792	-0.037944
C	-0.9307374091	 4.6923769522	 1.7654630091	-0.232135
C	-0.0000485331	 3.5557192794	 2.2579859591	-0.037944
O	 1.1582554115	 4.3412410218	 1.7709746986	-0.3069
H	-1.7514580292	 2.4621418312	-0.5902656836	 0.151561
H	-1.9014517286	 1.592376761	 0.9618858248	 0.151595
H	 0.4114452145	 5.006114077	-0.2033329491	 0.113072
H	-0.8001407351	 5.6301747414	 2.3034956551	 0.12581
H	-1.9751545134	 4.465421586	 1.5372063452	 0.108003
H	 0.078642011	 3.0801439276	 3.2344420152	 0.113072
102.2623	183.9893	241.8164	402.8908	416.2367	465.2138	522.4659	576.5819	647.8447	761.529	772.0847	815.5536	869.3505	875.4465	917.4273	949.0931	984.1643	1004.8819	1041.1105	1060.288	1095.5759	1123.8623	1161.077	1174.6206	1179.5154	1215.6767	1221.5458	1240.1543	1262.586	1347.0019	1452.5106	1483.196	1950.7762	3070.0373	3087.7732	3136.8225	3140.7898	3144.6066	3164.8127
O=C1CC2(O1)C1CC2O1	O=C1C[C@@]2(O1)[C@H]1C[C@@H]2O1	
InChI=1S/C6H6O3/c7-5-2-6(9-5)3-1-4(6)8-3/h3-4H,1-2H2	InChI=1S/C6H6O3/c7-5-2-6(9-5)3-1-4(6)8-3/h3-4H,1-2H2/t3-,4+,6-
