16
gdb 21172	7.0221	1.25648	1.08399	3.719	69.81	-0.2029	0.0248	0.2277	1092.1019	0.130465	-379.923553	-379.915365	-379.914421	-379.956256	29.153	
C	 0.0963758718	 1.4653388428	 0.047974048	-0.329996
N	-0.0896100239	 0.0208530803	 0.0640220588	-0.390549
C	 0.5382118081	-0.7530427599	 0.9985389274	 0.542341
C	 0.7656024224	-2.1014264967	 1.0922586416	-0.474708
C	 1.4076449416	-2.2393911697	 2.3516280232	 0.417995
C	 1.8952670946	-3.4923999527	 3.0066935632	-0.492827
N	 1.5634994184	-1.089222681	 2.9659513164	-0.228686
O	 1.0033943211	-0.1261803916	 2.086633625	-0.224454
H	 1.1260535413	 1.7670608693	-0.1888361114	 0.127915
H	-0.5783464657	 1.8936898784	-0.6960173212	 0.128662
H	-0.1615930335	 1.8766007177	 1.0256234868	 0.160324
H	-0.1794470105	-0.4193617599	-0.8377223391	 0.25232
H	 0.5087650128	-2.8701753304	 0.3832469654	 0.098064
H	 2.6415744439	-3.9953071889	 2.3828564478	 0.132942
H	 2.3470325359	-3.259012902	 3.9727226774	 0.146685
H	 1.0721042216	-4.1967799458	 3.1655199507	 0.133973
82.4695	130.6446	135.949	196.2872	211.195	313.7205	371.4335	443.6324	512.5292	641.0714	649.853	713.8077	734.193	755.7782	903.488	987.1129	1004.1366	1042.4406	1065.3034	1076.9836	1145.1255	1157.7783	1203.164	1355.9551	1402.1646	1435.3308	1454.3998	1477.3543	1481.985	1488.7704	1505.6407	1518.1384	1569.5893	1665.686	3009.2411	3041.1769	3096.7264	3101.1132	3138.0521	3142.6461	3271.8431	3633.722
CNC1=CC(C)=NO1	CNc1cc(C)no1	
InChI=1S/C5H8N2O/c1-4-3-5(6-2)8-7-4/h3,6H,1-2H3	InChI=1S/C5H8N2O/c1-4-3-5(6-2)8-7-4/h3,6H,1-2H3
