21
gdb 106626	2.30986	1.62292	1.20061	1.3323	77.43	-0.2504	0.0784	0.3288	1129.9648	0.183244	-424.214774	-424.206284	-424.20534	-424.247604	33.653	
C	 0.2589601425	 1.4489491449	 0.2498002679	-0.384758
C	-0.0907455529	-0.0039473614	-0.0950474168	-0.293219
C	 0.6063640297	-0.5154531245	-1.3275319712	 0.388792
C	 0.2735399876	 0.0446496007	-2.7262776716	-0.268538
C	 1.4057521816	-0.6734902064	-3.5286814247	-0.227184
C	 2.0338954146	-1.4276092152	-2.3479908943	 0.026476
O	 2.0866055369	-0.3987109446	-1.3019241141	-0.367016
C	 0.8265670961	-2.0379774596	-1.5993602716	 0.136867
O	 1.1488427814	-2.7930191322	-0.4648483086	-0.454351
H	 1.3388972373	 1.5654629052	 0.3751752032	 0.137313
H	-0.0631996587	 2.1395141737	-0.5358889208	 0.116809
H	-0.2290286875	 1.7531745658	 1.1802232191	 0.113234
H	 0.1655679925	-0.6615748622	 0.7436105636	 0.103068
H	-1.1723746112	-0.1094484214	-0.248870582	 0.102053
H	-0.7329103431	-0.2315890829	-3.0537905571	 0.101362
H	 0.3606955623	 1.1324181252	-2.7577733183	 0.111191
H	 1.033213901	-1.3420286003	-4.3097817936	 0.102333
H	 2.1131821507	 0.0264914309	-3.9774233902	 0.111424
H	 2.9713664121	-1.9673510346	-2.4852294323	 0.078879
H	 0.0701369107	-2.5911416187	-2.1626779256	 0.079339
H	 1.8436459064	-2.2993438821	-0.0086368711	 0.285923
85.9703	156.117	209.0935	236.4882	269.7348	288.6308	360.7267	453.4981	462.4874	529.9398	601.035	637.2288	693.9675	772.6509	815.4988	824.0925	892.5256	912.3555	924.341	954.0543	963.1459	973.8717	997.4908	1040.4032	1080.8558	1135.0885	1149.9927	1161.3189	1196.6217	1211.433	1241.1963	1253.8516	1278.9299	1298.8978	1306.5033	1318.4596	1331.7762	1391.7009	1410.2139	1446.0027	1477.6365	1483.0526	1499.206	1501.1822	1510.0652	3028.7622	3042.7856	3060.1131	3064.5156	3068.2929	3082.0831	3106.2304	3109.9943	3121.1377	3122.1609	3124.7658	3764.6114
CCC12CCC(O1)C2O	CC[C@@]12CC[C@@H](O1)[C@H]2O	
InChI=1S/C7H12O2/c1-2-7-4-3-5(9-7)6(7)8/h5-6,8H,2-4H2,1H3	InChI=1S/C7H12O2/c1-2-7-4-3-5(9-7)6(7)8/h5-6,8H,2-4H2,1H3/t5-,6-,7+/m1/s1
