21
gdb 89743	2.42169	1.54773	1.13812	2.673	83.33	-0.2251	0.0733	0.2984	1161.0179	0.18313	-383.207168	-383.198452	-383.197508	-383.240362	33.989	
C	-0.7748941128	 1.1775791824	-0.0453250131	-0.411422
C	 0.1190103504	-0.0536080738	-0.0513234326	-0.061873
C	 1.4975814631	 0.0359436724	-0.791190794	-0.35659
C	 2.1523553208	-0.6397474273	 0.4219192319	 0.311649
C	 3.0488396417	-1.8145628947	 0.4367321061	-0.302086
N	 3.5055756789	-0.4996526337	 0.9432832229	-0.368993
C	 0.8915673535	-0.4329231243	 1.2297084991	 0.298853
C	 0.7777477815	 0.1623552128	 2.5781507338	-0.302826
N	 0.4791028295	-1.2699794074	 2.348417906	-0.371609
H	-0.2269339504	 2.0608097224	 0.2994596861	 0.118758
H	-1.1586158343	 1.3889406844	-1.0493145245	 0.117351
H	-1.6402052306	 1.0420000564	 0.6138664223	 0.11282
H	-0.4415832148	-0.9227547939	-0.4158436803	 0.077853
H	 1.5757695198	-0.4772813698	-1.7526195799	 0.103386
H	 1.8219765375	 1.0750784363	-0.91508939	 0.103235
H	 2.9168436052	-2.5721929338	 1.2034703714	 0.1331
H	 3.4408665774	-2.1743690822	-0.511798423	 0.105756
H	 4.1003000496	-0.0478575712	 0.2517400725	 0.226995
H	 1.68260227	 0.3492882494	 3.1486960533	 0.13285
H	-0.0470683721	 0.8418282726	 2.7781078941	 0.106872
H	-0.5285947939	-1.414302397	 2.3234200378	 0.225922
66.575	186.9627	200.2363	218.2192	224.43	250.2001	332.7654	402.0714	454.3646	526.1799	567.2349	596.7635	762.0472	841.2342	853.3808	865.1952	897.5249	919.4275	930.7671	958.0869	970.6198	982.5402	993.6346	1015.7386	1061.6603	1101.3213	1118.7179	1121.8925	1153.0077	1176.783	1230.7975	1238.6467	1261.5545	1267.1059	1269.0711	1300.8168	1366.3869	1378.457	1409.6433	1447.6006	1484.6602	1493.7872	1496.4097	1507.6904	1517.4111	3024.8263	3030.839	3042.8257	3088.4091	3098.8779	3103.6799	3104.8178	3107.8124	3197.2781	3198.5992	3480.4471	3486.5711
CC1CC2(CN2)C11CN1	C[C@H]1C[C@]2(CN2)[C@]21CN2	
InChI=1S/C7H12N2/c1-5-2-6(3-8-6)7(5)4-9-7/h5,8-9H,2-4H2,1H3	InChI=1S/C7H12N2/c1-5-2-6(3-8-6)7(5)4-9-7/h5,8-9H,2-4H2,1H3/t5-,6-,7+/m0/s1
