18
gdb 26625	3.2273	1.24858	0.91044	2.8164	90.13	-0.1956	0.0192	0.2148	1269.5695	0.146294	-364.836788	-364.827118	-364.826174	-364.871793	35.133	
C	-0.0826457891	 1.520037556	 0.1178365552	-0.50878
C	-0.0138909425	 0.0352698239	-0.0273450154	 0.246418
C	-0.0020665937	-0.7778299728	-1.1389877761	 0.083395
C	-0.0578107033	-0.3738906961	-2.5794279013	-0.51943
C	 0.0760374206	-2.1386680616	-0.6683632168	 0.08973
C	 0.1084083875	-2.0940915962	 0.7125850896	-0.208826
N	 0.0537895373	-0.7826665861	 1.0845597444	-0.302534
C	 0.1124309375	-3.298835941	-1.4745810902	 0.256051
C	 0.1420262726	-4.2712429918	-2.1868789875	-0.472614
H	 0.7958604078	 1.924854194	 0.6362369409	 0.127261
H	-0.1301799834	 1.9966110896	-0.863079715	 0.140856
H	-0.9696333886	 1.8388272863	 0.6799903152	 0.127269
H	 0.8254433848	-0.7225622005	-3.1266667276	 0.13234
H	-0.929780373	-0.8072064846	-3.0825125002	 0.132328
H	-0.1130832971	 0.7118738452	-2.6949374014	 0.113587
H	 0.1653343554	-2.8904939237	 1.4359987187	 0.126117
H	 0.061565846	-0.4543411596	 2.0345882283	 0.259254
H	 0.1684746913	-5.1319248409	-2.806982221	 0.177577
41.1915	86.9955	117.6062	130.8375	237.7792	275.3766	276.5645	367.8141	446.3313	493.8999	512.1873	521.8879	554.852	638.9145	646.6171	685.6195	696.6741	729.7015	743.8534	942.8306	977.4307	1056.3366	1067.4155	1109.3945	1122.6903	1207.515	1243.4316	1332.9069	1391.3597	1417.8259	1426.566	1471.7416	1477.6897	1482.1913	1492.2303	1501.3167	1552.4986	1639.8365	2224.7985	3015.2084	3028.7255	3057.9325	3076.4957	3109.5656	3129.2051	3271.6104	3506.5992	3677.7782
CC1=C(C)C(=CN1)C#C	Cc1c(C)c(c[nH]1)C#C	
InChI=1S/C8H9N/c1-4-8-5-9-7(3)6(8)2/h1,5,9H,2-3H3	InChI=1S/C8H9N/c1-4-8-5-9-7(3)6(8)2/h1,5,9H,2-3H3
