19
gdb 94749	3.73771	1.15032	1.02579	4.528	80.35	-0.2326	0.0242	0.2568	1208.7257	0.161293	-382.075824	-382.06759	-382.066646	-382.108395	32.033	
C	-0.0176962741	 1.5682813497	-0.0219877336	-0.397899
C	 0.0404439453	 0.0412153947	 0.0433977366	 0.009383
C	 0.8044309661	-0.5980827947	-1.1511230319	-0.207421
N	 1.3855326734	-1.8775466498	-0.6962376314	-0.349928
C	 1.5289070399	-1.7520221053	 0.751494684	 0.221337
C	 2.2697616493	-0.5301538843	 1.2522135591	-0.320267
C	 0.7608256698	-0.5306890803	 1.257291284	-0.096496
C	 1.5938470485	-2.9794861871	 1.4912490599	 0.203663
N	 1.6282519781	-3.9704060461	 2.0875275848	-0.344809
H	 0.9888254481	 1.9998651158	-0.0036019586	 0.119356
H	-0.5097762989	 1.9036074454	-0.9411815254	 0.11933
H	-0.5751733472	 1.9832234084	 0.8232572202	 0.121386
H	-0.9845893199	-0.3527462684	 0.0608222289	 0.080703
H	 0.1665504055	-0.7659906363	-2.0218363708	 0.114405
H	 1.6106125023	 0.0711621978	-1.4746008118	 0.114069
H	 0.7280213755	-2.630394424	-0.8768143911	 0.233052
H	 2.7672821323	-0.6239357639	 2.2100404991	 0.139296
H	 2.8142184613	 0.05532511	 0.5194414104	 0.131815
H	 0.2482159747	-0.5564315816	 2.2117488875	 0.109025
109.1829	149.098	180.038	232.5824	270.9066	327.6292	391.9343	455.7314	528.7484	562.8125	591.2331	609.5304	712.709	800.139	808.6347	863.4951	897.6798	941.1577	950.1776	981.2284	1012.1322	1025.9777	1065.934	1078.1595	1093.3328	1131.8352	1164.6026	1216.732	1250.1664	1294.6558	1323.9842	1335.0146	1372.0239	1385.9725	1413.8741	1461.713	1486.6583	1495.6726	1500.4672	1515.8193	2352.6047	3013.2805	3031.5267	3035.4454	3099.3346	3103.0312	3106.7271	3142.5069	3183.1208	3231.841	3510.5776
CC1CNC2(CC12)C#N	C[C@H]1CN[C@]2(C[C@@H]12)C#N	
InChI=1S/C7H10N2/c1-5-3-9-7(4-8)2-6(5)7/h5-6,9H,2-3H2,1H3	InChI=1S/C7H10N2/c1-5-3-9-7(4-8)2-6(5)7/h5-6,9H,2-3H2,1H3/t5-,6-,7+/m0/s1
