17
gdb 30897	2.35341	1.29402	0.8766	3.3743	74.15	-0.1719	0.0437	0.2157	1289.1348	0.135873	-455.163219	-455.153469	-455.152525	-455.198145	35.11	
N	 0.0680898061	 1.385629272	 0.2189269358	-0.606861
C	 0.0007978325	-0.010874084	 0.0732466934	 0.322589
C	-1.0459861983	-0.8493882576	-0.2623066367	-0.366016
C	-0.5409612489	-2.1797829084	-0.1777065346	 0.267024
O	-1.2128990125	-3.3427865252	-0.4338389285	-0.453883
C	 0.7827238113	-2.133927107	 0.1980147315	 0.165143
C	 1.7858493426	-3.2079488127	 0.4020729174	-0.189304
O	 2.8983086075	-3.1337295732	-0.5004643384	-0.423631
N	 1.0881268184	-0.7809638408	 0.3516671262	-0.331018
H	 0.7168592486	 1.8154665974	-0.43363427	 0.24495
H	-0.8418994227	 1.8055933562	 0.0787040614	 0.247959
H	-2.0392058608	-0.5438212308	-0.5566070823	 0.077301
H	-2.128775394	-3.1274059244	-0.6287767391	 0.295173
H	 2.2452745468	-3.1552989326	 1.3975072493	 0.103186
H	 1.2700732561	-4.1752265057	 0.3324538892	 0.112017
H	 2.5264232152	-3.1016767603	-1.3887103569	 0.274446
H	 1.975139322	-0.4295353728	 0.6680467923	 0.260926
50.1992	116.8269	133.9519	166.9451	218.9622	237.3216	281.0653	305.0667	363.9409	373.0669	457.3676	534.3203	604.4117	638.5381	667.6414	685.2493	716.1049	801.4639	833.6337	962.0375	1006.7563	1040.1993	1105.7562	1134.0795	1190.5664	1200.2936	1245.5962	1295.1629	1351.6002	1368.2873	1419.0147	1488.0047	1498.9081	1504.9752	1583.4656	1648.9553	1680.7917	3010.461	3045.7853	3234.5007	3499.0269	3607.9218	3680.7416	3801.2843	3851.2516
NC1=CC(O)=C(CO)N1	Nc1cc(O)c(CO)[nH]1	
InChI=1S/C5H8N2O2/c6-5-1-4(9)3(2-8)7-5/h1,7-9H,2,6H2	InChI=1S/C5H8N2O2/c6-5-1-4(9)3(2-8)7-5/h1,7-9H,2,6H2
