17
gdb 80102	2.7138	1.51755	1.25201	2.2081	80.58	-0.2229	0.0117	0.2346	1053.6	0.135683	-380.83386	-380.825443	-380.824499	-380.866571	32.219	
C	-0.106548148	 1.5335653925	 0.0120680447	-0.412876
C	 0.0750717746	 0.0347120144	 0.0126233535	-0.070533
C	 1.3955975664	-0.6571034835	-0.247901261	-0.077633
N	 2.6199364065	 0.0623480754	-0.0760364945	-0.231879
C	 2.6893864338	 0.4164348016	 1.1567683523	 0.02971
N	 1.6264204187	 0.0692995849	 1.9668065854	-0.347179
C	 0.7094261458	-0.7194366395	 1.1687356414	 0.147239
C	 0.1022741293	-1.8568339781	 1.7760047173	 0.218556
C	-0.4120846445	-2.8148868485	 2.2926650114	-0.415663
H	 0.7901068893	 2.0557746736	 0.3498191304	 0.13555
H	-0.3325768581	 1.8828875592	-1.0004950474	 0.123504
H	-0.9358572749	 1.8249274088	 0.6648866861	 0.120379
H	-0.7594268194	-0.5191547307	-0.4089935024	 0.099637
H	 1.4196124976	-1.4986703668	-0.9314745641	 0.105833
H	 3.5094653153	 0.9929945046	 1.5724351656	 0.12943
H	 1.764001355	-0.1703317902	 2.9367894122	 0.253561
H	-0.8647424774	-3.6638444778	 2.7417806692	 0.192364
112.7604	129.8042	155.0396	224.461	237.8578	392.9533	410.9451	467.2655	487.4952	544.3931	549.8268	584.2152	672.2	680.0935	698.5617	774.8424	878.0003	918.3899	928.1222	961.2115	1023.8959	1036.2544	1102.1755	1110.9268	1136.1626	1150.6239	1232.2194	1243.1095	1328.6442	1350.8682	1387.122	1419.1891	1451.9314	1489.1958	1497.9297	1640.4266	2229.9622	3042.1433	3100.6671	3132.5413	3150.5259	3171.12	3196.8696	3502.0296	3623.0381
CC1C2N=CNC12C#C	C[C@H]1[C@H]2N=CN[C@@]12C#C	
InChI=1S/C7H8N2/c1-3-7-5(2)6(7)8-4-9-7/h1,4-6H,2H3,(H,8,9)	InChI=1S/C7H8N2/c1-3-7-5(2)6(7)8-4-9-7/h1,4-6H,2H3,(H,8,9)/t5-,6+,7-/m0/s1
