18
gdb 10500	2.89118	1.32846	1.01777	1.962	77.34	-0.2445	0.0346	0.2792	1219.0686	0.150903	-347.765611	-347.756091	-347.755147	-347.801551	32.859	
C	-0.357093451	 1.3983077411	 0.0427467232	-0.379253
C	 0.2318228819	-0.0140909508	 0.1108130289	-0.26137
C	 0.8171276462	-0.4695012312	-1.216439204	 0.214525
C	 0.6435272512	-1.8685984039	-1.659465483	-0.219578
O	-0.1672249911	-0.8364800742	-2.2099984032	-0.26598
C	 1.9459823582	 0.285756666	-1.7111277508	 0.035411
C	 2.888580255	 0.9326159637	-2.0910639758	 0.116104
C	 4.0250114528	 1.7074619711	-2.5663710444	-0.50348
H	 0.4093242487	 2.1298249967	-0.2297874228	 0.127035
H	-1.1526442918	 1.4461897288	-0.7066618737	 0.131968
H	-0.7790002328	 1.6902805164	 1.0087673836	 0.111273
H	 1.0186101467	-0.0612132243	 0.8732118596	 0.105576
H	-0.5445746396	-0.7304797715	 0.3998748202	 0.103871
H	 1.3722138584	-2.3069223986	-2.3391551756	 0.116878
H	 0.1327409143	-2.5713665711	-1.0011753129	 0.11114
H	 4.8344422929	 1.0568230581	-2.9151363348	 0.150585
H	 3.7377304293	 2.3574750613	-3.4001598714	 0.154431
H	 4.4289689507	 2.3453190424	-1.7726841531	 0.150865
16.4052	75.0467	102.6519	130.5688	220.2431	232.1529	306.3947	324.3749	349.6543	435.8614	533.2487	569.4176	611.2367	763.5965	825.0604	861.4922	947.0728	994.4785	1042.211	1051.4738	1054.8119	1094.928	1103.6539	1136.2202	1167.5918	1267.2396	1294.7035	1352.2951	1395.0012	1408.2442	1413.8393	1471.4106	1476.2055	1477.6493	1496.3658	1508.6587	1519.9518	2367.2507	3027.8586	3034.3372	3042.4437	3075.7395	3077.6832	3089.2929	3090.5284	3114.0147	3119.1657	3169.0374
CCC1(CO1)C#CC	CC[C@]1(CO1)C#CC	
InChI=1S/C7H10O/c1-3-5-7(4-2)6-8-7/h4,6H2,1-2H3	InChI=1S/C7H10O/c1-3-5-7(4-2)6-8-7/h4,6H2,1-2H3/t7-/m1/s1
