16
gdb 130449	3.18964	1.31437	0.9661	7.4497	67.8	-0.2229	-0.0063	0.2166	1163.4051	0.125362	-471.191078	-471.183295	-471.18235	-471.223671	29.302	
N	-1.2505472251	 1.4301238017	 0.2090793339	-0.516043
H	-1.5470069645	 0.5183057953	-0.126927624	 0.256016
H	-0.7688512362	 1.8822624002	-0.5642999085	 0.252554
H	-2.5348702277	 2.3952842403	 0.7143799477	 0.330008
C	-0.3300027657	 1.2840994266	 1.3614179123	-0.174189
C	 0.0196931882	 2.6523045661	 1.9571986052	-0.317494
C	-1.1299131977	 3.3726089207	 2.5950497176	 0.096489
C	-2.4549471022	 3.5025778868	 2.2218683185	 0.403265
O	-3.1517558981	 3.0161257894	 1.2216235834	-0.404824
O	-3.0827956568	 4.2731471809	 3.0906276775	-0.207073
N	-2.0734585872	 4.6554994194	 4.0868237934	-0.045321
N	-0.9983313945	 4.1076012153	 3.7399525793	-0.164777
H	-0.8386088219	 0.6710170561	 2.1119303272	 0.132597
H	 0.5940118462	 0.7629832206	 1.0771581011	 0.109155
H	 0.7912994571	 2.5155389351	 2.7208767247	 0.138331
H	 0.4846138959	 3.2653634955	 1.1692982608	 0.111306
66.8458	174.9178	255.4848	262.7113	294.3129	345.6521	383.2364	435.593	496.2272	608.4796	672.3558	688.3287	754.4127	762.6898	866.9266	917.296	950.6134	995.8127	1041.3225	1059.042	1072.9982	1149.1936	1212.7814	1241.463	1316.1155	1322.8875	1360.122	1417.0316	1446.8129	1455.2064	1480.2224	1508.0395	1594.052	1639.5538	1647.1453	2903.637	2985.8991	3014.8614	3084.7643	3089.5351	3487.4922	3565.6751
[NH3+]CCC1=C([O-])ON=N1	NCCc1c(O)onn1	
InChI=1S/C4H7N3O2/c5-2-1-3-4(8)9-7-6-3/h8H,1-2,5H2	InChI=1S/C4H7N3O2/c5-2-1-3-4(8)9-7-6-3/h8H,1-2,5H2
