17
gdb 16625	3.09112	2.29138	1.5322	3.5171	67.53	-0.2367	0.0266	0.2633	848.0754	0.144016	-363.899386	-363.892276	-363.891331	-363.930512	27.751	
C	-0.1907032748	 1.5655535756	 0.0251349074	-0.389157
C	 0.0364210455	 0.0545346929	-0.0486054944	-0.115643
C	 0.840245443	-0.4721294188	-1.2292931516	-0.048255
C	 2.3102552993	-0.1193264571	-1.3465597177	-0.303364
C	 1.8889349637	-1.4081841773	-0.6808265902	-0.009043
N	 1.7377995503	-1.3761112688	 0.7456681995	-0.305675
C	 0.8071377195	-0.4626610332	 1.1859563328	 0.384982
O	 0.6417745936	-0.1167955317	 2.3345510877	-0.376461
H	 0.7532922593	 2.1119587333	-0.0655260445	 0.117312
H	-0.8550014671	 1.9027316918	-0.7757493092	 0.111244
H	-0.6379990938	 1.8223583593	 0.9887621218	 0.141842
H	-0.941152656	-0.4457388744	-0.036498045	 0.104812
H	 0.3138727873	-0.7282636259	-2.1406327868	 0.095555
H	 2.747005893	-0.178292285	-2.3378421602	 0.117536
H	 2.7234337126	 0.6599479167	-0.7139454744	 0.120987
H	 2.1052257975	-2.3727985061	-1.1251297743	 0.103575
H	 2.4687399474	-1.6695528614	 1.376207209	 0.249754
105.4512	214.1071	220.7277	250.4529	413.2869	475.1566	482.9922	520.2465	618.7151	715.2688	719.061	769.6583	800.7445	826.8652	904.3596	954.525	997.172	1036.5567	1056.2345	1072.5637	1090.2302	1113.6442	1135.6276	1141.0008	1206.1489	1253.1291	1289.7634	1334.8388	1369.5887	1382.9489	1406.6366	1415.4635	1478.1525	1495.6183	1499.3995	1825.7611	3022.1119	3042.3547	3110.8096	3126.3655	3126.9225	3172.6891	3183.0336	3217.1729	3622.136
CC1C2CC2NC1=O	C[C@H]1[C@H]2C[C@H]2NC1=O	
InChI=1S/C6H9NO/c1-3-4-2-5(4)7-6(3)8/h3-5H,2H2,1H3,(H,7,8)	InChI=1S/C6H9NO/c1-3-4-2-5(4)7-6(3)8/h3-5H,2H2,1H3,(H,7,8)/t3-,4+,5+/m0/s1
