19
gdb 79962	1.92271	1.83163	1.64041	2.4115	75.13	-0.2361	-0.0042	0.2319	994.8095	0.159257	-423.016407	-423.007998	-423.007054	-423.048653	33.41	
C	-0.0331236937	 1.5077579112	-0.0124566266	-0.49727
C	 0.0531518718	 0.0026711855	 0.0084116183	 0.261168
C	-0.8362528027	-0.808097762	 0.9152123456	 0.060477
O	-1.5282271418	-1.9437233592	 0.4551881732	-0.433631
C	 0.66470623	-0.8060980802	 1.1532551972	-0.186155
C	 1.3964535662	-1.939405979	 0.5072794286	-0.108644
C	 1.2515539549	-1.925286322	-0.8204373185	-0.133047
C	 0.4509428161	-0.7190832588	-1.2962232798	 0.041682
O	-0.6520757615	-1.0375903656	-2.1302580341	-0.445999
H	 0.9385864353	 1.9601659154	-0.2425108446	 0.118512
H	-0.7456444165	 1.8373993252	-0.7772539352	 0.133486
H	-0.3661794224	 1.9074450971	 0.9508513322	 0.113157
H	-1.4401459202	-0.2529699928	 1.6277457685	 0.106038
H	-0.8915768878	-2.6687141565	 0.398222086	 0.287739
H	 1.0508081937	-0.3455524423	 2.056264946	 0.08971
H	 1.934069126	-2.688670787	 1.0786985551	 0.105612
H	 1.6292414501	-2.6654468495	-1.5165496008	 0.107029
H	 1.0884340302	-0.0655659345	-1.9069725571	 0.089615
H	-1.2985890975	-1.472203975	-1.5556453839	 0.290518
153.105	197.7888	207.6483	230.5073	278.1154	295.7838	316.9369	366.3034	496.8195	564.4051	586.99	617.2661	619.5542	735.2494	767.6118	797.6123	864.4877	874.3477	921.4016	967.4335	993.8825	1014.0637	1023.8265	1060.0714	1085.427	1117.1689	1122.5391	1151.3599	1198.8948	1269.2863	1271.6652	1304.1729	1317.1333	1362.0759	1377.095	1414.6411	1444.5161	1458.7804	1489.6032	1500.46	1661.6274	3014.1941	3023.1603	3085.1682	3097.1851	3147.0418	3167.0696	3182.2594	3210.7716	3728.6044	3752.7012
CC12C(O)C1C=CC2O	C[C@]12[C@@H](O)[C@H]1C=C[C@H]2O	
InChI=1S/C7H10O2/c1-7-4(6(7)9)2-3-5(7)8/h2-6,8-9H,1H3	InChI=1S/C7H10O2/c1-7-4(6(7)9)2-3-5(7)8/h2-6,8-9H,1H3/t4-,5-,6+,7+/m1/s1
