17
gdb 116100	2.6337	1.42097	1.0029	5.0301	65.62	-0.2771	0.0396	0.3167	1171.0762	0.136015	-496.140872	-496.132419	-496.131474	-496.175112	30.167	
C	-0.2094525397	 1.3455236212	-0.2043224876	-0.25207
O	-0.2477115235	-0.0699493135	-0.3467925564	-0.225226
C	 0.8067771595	-0.6051144857	-1.0587446362	 0.239132
C	 0.7300827923	-2.12320937	-0.9733873295	-0.275745
C	 1.2686660734	-2.7058445292	-2.2651470081	-0.083103
O	 0.4783134154	-2.2219304633	-3.3599000475	-0.239139
C	 0.2880791287	-0.8891367119	-3.4562012888	 0.458716
O	-0.227738796	-0.3949367041	-4.4106848842	-0.357714
O	 0.7738060202	-0.1398877426	-2.4329653926	-0.271687
H	 0.72250229	 1.6667469995	 0.2823421786	 0.112649
H	-0.2984687368	 1.8440118955	-1.1743774619	 0.14775
H	-1.0564495629	 1.6172323665	 0.4274642895	 0.137151
H	 1.7674639127	-0.2140397849	-0.6936688502	 0.086231
H	 1.2894330199	-2.4800218514	-0.1047650325	 0.124239
H	-0.3176266648	-2.4117799143	-0.8487590025	 0.141363
H	 2.3201800675	-2.435499402	-2.4258205457	 0.122997
H	 1.1805466943	-3.7926282899	-2.2994215943	 0.134456
38.4917	108.7576	118.6787	182.692	236.1435	308.6044	386.9152	477.8869	496.2416	521.398	611.8931	684.9399	762.0531	806.5319	917.2729	937.5259	964.3704	1006.7202	1064.3975	1109.4137	1126.9442	1168.7457	1180.2937	1187.5524	1215.5752	1263.4908	1280.5413	1349.279	1407.8382	1416.9147	1422.4214	1475.5891	1484.2883	1485.4485	1510.8544	1513.6679	1890.2837	3001.229	3007.2895	3032.5064	3067.6055	3089.286	3118.5928	3125.0289	3141.6201
COC1CCOC(=O)O1	CO[C@H]1CCOC(=O)O1	
InChI=1S/C5H8O4/c1-7-4-2-3-8-5(6)9-4/h4H,2-3H2,1H3	InChI=1S/C5H8O4/c1-7-4-2-3-8-5(6)9-4/h4H,2-3H2,1H3/t4-/m1/s1
