20
gdb 104828	1.81052	1.56468	1.30471	3.2414	74.49	-0.2296	0.0095	0.2391	1152.5768	0.170109	-440.301511	-440.291775	-440.290831	-440.33612	35.222	
C	-0.0807349467	 1.6059634279	-0.0574633853	-0.40629
C	 0.1204210791	 0.0867364523	 0.0109960121	-0.246392
C	 0.7688023046	-0.5242659032	-1.2408798755	 0.134866
C	 0.5434185896	-2.0544685415	-1.3719814298	-0.11544
O	-0.4045620359	-1.8419432492	-2.4647765223	-0.244891
C	-0.195571519	-0.4847557323	-2.4658857756	 0.418463
O	-0.6558311426	 0.3201754026	-3.212968787	-0.341253
N	 2.1259263376	-0.0630945998	-1.3966269621	-0.332364
C	 2.7548845421	-0.2889140785	-2.6970987998	-0.3451
H	 0.8679151551	 2.153554677	-0.0564349204	 0.117283
H	-0.633732467	 1.8890654781	-0.9572825864	 0.153071
H	-0.6442318088	 1.9510938954	 0.814142722	 0.121998
H	 0.7445947668	-0.1787057535	 0.8727683173	 0.112652
H	-0.8518351685	-0.3959667781	 0.1604091539	 0.113642
H	 1.4049663831	-2.6310831434	-1.711907787	 0.124965
H	 0.0597036116	-2.5482754345	-0.5267396524	 0.121209
H	 2.1820106277	 0.9189043583	-1.1584107544	 0.229279
H	 2.8811025325	-1.3616868685	-2.8754190873	 0.128377
H	 2.1951397894	 0.132984088	-3.5458520809	 0.130059
H	 3.7532898592	 0.155627503	-2.6852133191	 0.125864
96.8394	106.3387	124.2448	143.057	188.514	207.9872	279.1623	285.0141	330.5313	390.1406	470.0747	553.606	670.9965	716.7348	733.9584	769.4175	801.4126	904.706	929.4355	962.491	1009.1771	1019.9559	1096.5243	1107.3029	1123.525	1152.5162	1154.0535	1160.4986	1239.1663	1261.024	1310.1216	1359.9927	1376.2739	1417.4656	1463.671	1478.3384	1484.751	1494.3414	1504.4535	1508.3826	1518.4504	1527.1564	1915.1246	2990.9291	3031.3427	3038.0825	3070.5123	3072.3956	3077.7944	3101.5392	3114.3379	3125.286	3138.0705	3561.9505
CCC1(COC1=O)NC	CC[C@]1(COC1=O)NC	
InChI=1S/C6H11NO2/c1-3-6(7-2)4-9-5(6)8/h7H,3-4H2,1-2H3	InChI=1S/C6H11NO2/c1-3-6(7-2)4-9-5(6)8/h7H,3-4H2,1-2H3/t6-/m1/s1
