15
gdb 19964	3.65263	1.86622	1.46638	2.6441	60.76	-0.2406	-0.0012	0.2394	856.9111	0.119424	-399.782391	-399.775315	-399.774371	-399.814251	25.6	
O	 0.2134020521	-0.0013849187	-0.0075279121	-0.329469
C	 0.1194829255	 1.1785161455	-0.1329866857	 0.436796
O	-1.0019132278	 1.9058860892	-0.4368731887	-0.238803
C	-0.2967075806	 3.1806816423	-0.2719373459	-0.094567
C	 1.0255394573	 2.4304128605	-0.0147163786	-0.145811
N	 1.7378722808	 2.7357796673	 1.2013037093	-0.088993
C	 1.2876488536	 2.1259515097	 2.4546203582	-0.237203
C	 2.54380221	 1.6689987651	 1.7979269518	-0.219746
H	-0.3614060343	 3.7812971833	-1.180168375	 0.130481
H	-0.6824984278	 3.7277623549	 0.5900973478	 0.13431
H	 1.7238310265	 2.4897044694	-0.8553217579	 0.123287
H	 1.3248933105	 2.7789579164	 3.3210625453	 0.123518
H	 0.4440569653	 1.4397579011	 2.4320463261	 0.136484
H	 2.5172792442	 0.6892906745	 1.3283873133	 0.146557
H	 3.5111670347	 1.9802700794	 2.1809087821	 0.123158
72.2558	139.9492	151.8725	256.248	353.5654	452.1168	509.7687	663.965	743.3472	792.0894	821.0725	885.6912	915.7848	933.1947	963.6019	1031.1714	1086.3107	1102.1168	1122.0259	1130.0016	1137.0785	1157.9941	1178.9741	1196.0865	1230.5502	1326.427	1330.6079	1372.6769	1488.9737	1512.6006	1518.0505	1919.8514	3069.2233	3081.6639	3108.8027	3114.3222	3147.1394	3194.2292	3209.5389
O=C1OCC1N1CC1	O=C1OC[C@H]1N1CC1	
InChI=1S/C5H7NO2/c7-5-4(3-8-5)6-1-2-6/h4H,1-3H2	InChI=1S/C5H7NO2/c7-5-4(3-8-5)6-1-2-6/h4H,1-3H2/t4-/m1/s1
