19
gdb 98243	2.73556	1.23546	0.86489	2.0866	75.12	-0.248	-0.0064	0.2415	1343.4097	0.157618	-456.422418	-456.411939	-456.410994	-456.459307	35.994	
C	 0.5262591036	 1.4365928358	 0.1367907753	-0.316352
N	 0.8579916447	 0.1054637535	 0.604723655	-0.348899
C	-0.0803331687	-0.8574136266	 0.6091772096	 0.510964
O	-1.2284787193	-0.6907956142	 0.2369937534	-0.414616
N	 0.3421846197	-2.1560415161	 1.0936259895	-0.210113
C	-0.7023802351	-3.1850128292	 1.0866968041	-0.355666
C	 1.617093222	-2.4567026233	 1.5391618171	 0.435166
C	 1.8534796725	-3.8810561187	 2.005972602	-0.493285
O	 2.5356314685	-1.6470517952	 1.5720380096	-0.382542
H	 1.4177070386	 2.0614583859	 0.2153365494	 0.125266
H	 0.192645036	 1.421075986	-0.9059105648	 0.13872
H	-0.274850013	 1.8815324548	 0.7359304773	 0.1388
H	 1.7833006927	-0.143397639	 0.9367227141	 0.283542
H	-0.4285609728	-4.0243877591	 0.4415203893	 0.129643
H	-0.8971155572	-3.5598459185	 2.0953396463	 0.129645
H	-1.6037873316	-2.716089802	 0.6995890974	 0.18481
H	 1.6648282831	-4.603719723	 1.2065676304	 0.146999
H	 2.8935227388	-3.9534721926	 2.3210375005	 0.150924
H	 1.2008741873	-4.1442448283	 2.8436534644	 0.146991
25.5765	80.0975	89.9632	114.3615	140.9699	208.4621	223.2649	282.7155	316.3018	388.0796	425.9164	450.5891	583.9752	604.7809	618.8698	658.437	774.3546	809.9099	919.574	1018.8764	1053.1174	1071.7532	1155.6601	1155.6931	1161.9075	1202.2952	1215.3487	1258.4451	1355.3987	1402.2018	1448.9697	1456.6169	1466.2101	1478.2551	1481.0927	1505.5829	1513.664	1521.9104	1575.1525	1738.9343	1798.3305	3036.8439	3046.7516	3053.404	3090.9042	3106.8401	3116.2264	3135.7588	3166.2117	3181.9738	3499.5929
CNC(=O)N(C)C(C)=O	CNC(=O)N(C)C(=O)C	
InChI=1S/C5H10N2O2/c1-4(8)7(3)5(9)6-2/h1-3H3,(H,6,9)	InChI=1S/C5H10N2O2/c1-4(8)7(3)5(9)6-2/h1-3H3,(H,6,9)
