19
gdb 73350	2.55142	2.01732	1.63829	1.4294	78.24	-0.214	0.0159	0.2299	920.4476	0.161196	-385.883626	-385.876611	-385.875667	-385.914453	29.45	
C	-0.0291699857	 1.5413401778	-0.0078425739	-0.482607
C	-0.0042178569	 0.0170417173	 0.0166009652	 0.230871
C	 0.6460339018	-0.6302628389	-1.2325971736	-0.090288
O	 0.192791345	-1.9889444372	-1.2239869179	-0.258878
C	-1.0881320938	-1.9974239033	-0.6505251009	 0.090829
C	-1.2320994229	-1.9055548435	 0.8798353948	-0.139801
C	 0.0120817464	-1.681869619	 1.6678355397	-0.06814
C	 0.6731673076	-0.6092856991	 1.2325473679	-0.123925
C	-1.3912740371	-0.6863308189	-0.0160311174	-0.159216
H	 0.9855933904	 1.9540085129	-0.0252497996	 0.116452
H	-0.5562353299	 1.9146315569	-0.8927948272	 0.115745
H	-0.5321060413	 1.9371518612	 0.8795325058	 0.124909
H	 0.3196733608	-0.1198052337	-2.154112617	 0.082843
H	 1.7395154576	-0.6434958479	-1.2029328931	 0.105924
H	-1.8189313966	-2.5738161678	-1.2091172736	 0.096874
H	-2.0920258862	-2.3982900453	 1.3215805498	 0.083253
H	 0.3368364679	-2.3498396352	 2.4568308293	 0.098669
H	 1.6429007438	-0.2730581747	 1.5834984509	 0.091187
H	-2.3120639609	-0.1297410915	-0.1433849294	 0.085299
214.5542	219.4666	273.7485	279.1653	345.4995	427.8141	565.5467	587.0216	659.3371	712.1979	748.4499	766.1063	795.4831	807.6651	821.4376	894.6656	922.0649	945.1309	967.441	989.428	1001.3115	1021.8842	1054.5252	1065.9806	1090.5913	1116.0159	1153.1234	1180.5309	1193.8528	1201.0645	1252.1937	1279.35	1311.2277	1363.3231	1381.849	1392.9351	1413.9658	1493.1913	1498.6149	1508.4258	1668.1406	2964.8717	3029.2744	3085.6506	3093.8046	3105.8368	3154.386	3163.7159	3179.6525	3183.7341	3211.6165
CC12COC3C(C=C1)C23	C[C@@]12CO[C@H]3[C@@H](C=C1)[C@@H]23	
InChI=1S/C8H10O/c1-8-3-2-5-6(8)7(5)9-4-8/h2-3,5-7H,4H2,1H3	InChI=1S/C8H10O/c1-8-3-2-5-6(8)7(5)9-4-8/h2-3,5-7H,4H2,1H3/t5-,6+,7-,8-/m0/s1
