19
gdb 17134	5.35446	1.27326	1.20615	2.1187	71.29	-0.2393	0.0753	0.3146	1072.5431	0.166063	-365.022858	-365.014843	-365.013899	-365.055719	29.636	
C	-0.385580891	 1.3723094968	 0.1408070493	-0.39716
C	 0.2726541932	 0.0068683538	 0.1354726096	 0.166636
C	 0.8199496832	-0.5226173913	-1.2079839651	-0.315044
C	 2.2107922685	-0.3895705987	-0.5427337391	 0.113597
O	 1.613591335	 0.0427023338	 0.7032912326	-0.316019
C	 3.0343730338	-1.6428079606	-0.380616516	-0.007168
C	 3.8220085394	-1.8577400919	 0.8546295046	-0.240116
N	 2.6207549619	-2.6739284355	 0.5797609306	-0.323187
H	 0.2136826242	 2.0981262612	-0.4180944034	 0.120292
H	-1.3801455039	 1.3173015583	-0.3156208705	 0.117769
H	-0.4991917802	 1.7380987272	 1.1659796747	 0.128388
H	-0.3488511072	-0.7134953813	 0.6831038155	 0.078731
H	 0.5334712153	-1.5465510174	-1.4535158758	 0.119522
H	 0.6427637346	 0.1227727898	-2.0702453128	 0.107596
H	 2.835523806	 0.4050017595	-0.974301066	 0.080758
H	 3.4168955874	-2.0366958969	-1.3215696951	 0.089878
H	 4.765304524	-2.3945071583	 0.8143754393	 0.114822
H	 3.7493292326	-1.0997939467	 1.6291851675	 0.126108
H	 1.8617383931	-2.2874982618	 1.1399897601	 0.234597
61.4956	93.7798	164.7657	229.9452	236.6458	328.2933	417.6868	448.7287	611.2051	698.1671	776.8622	851.243	855.7391	898.0279	915.2513	923.1486	966.5875	979.7563	1012.7966	1041.6373	1086.8509	1103.8092	1125.2971	1138.5519	1149.2763	1186.6642	1210.028	1255.8986	1266.4171	1282.4427	1302.9701	1329.2379	1367.2703	1392.6231	1409.3595	1417.6942	1482.0214	1489.7453	1494.7303	1503.4498	3001.7309	3014.273	3032.7489	3077.0075	3105.288	3112.0396	3112.9861	3117.7941	3133.9485	3204.164	3475.1232
CC1CC(O1)C1CN1	C[C@H]1C[C@@H](O1)[C@H]1CN1	
InChI=1S/C6H11NO/c1-4-2-6(8-4)5-3-7-5/h4-7H,2-3H2,1H3	InChI=1S/C6H11NO/c1-4-2-6(8-4)5-3-7-5/h4-7H,2-3H2,1H3/t4-,5+,6+/m0/s1
