15
gdb 128246	2.74626	1.49559	0.97534	3.4862	74.9	-0.2153	-0.0621	0.1532	1142.6813	0.112795	-453.932936	-453.924833	-453.923889	-453.965936	29.481	
C	 0.0787669149	 1.4199952477	-0.0679879775	-0.32987
N	-0.0598841133	-0.00316163	 0.1165766435	-0.361362
C	-1.2524176623	-0.6537211661	 0.05933901	 0.167681
C	-2.489409728	-0.0844736072	 0.0360189616	-0.007601
O	-3.6480339565	-0.7878772622	 0.0154992316	-0.217241
N	-3.6528583879	-2.1516685998	 0.0005457886	-0.058863
C	-2.5001444363	-2.7441180383	 0.0008599386	-0.057501
C	-1.1873385649	-2.1126630422	 0.0205798154	 0.305385
O	-0.1238334106	-2.7253984948	-0.0011561604	-0.391927
H	 1.13563842	 1.6865426807	-0.0166718931	 0.141107
H	-0.3191065064	 1.7621489483	-1.0358178072	 0.124952
H	-0.4434576988	 1.9707933645	 0.7250305923	 0.133698
H	 0.7281807146	-0.6152567762	-0.0391608132	 0.263232
H	-2.6946774056	 0.9777244538	 0.040366977	 0.13911
H	-2.5506767689	-3.8287242582	-0.0171975372	 0.1492
84.4583	128.8094	167.304	184.3727	303.1142	337.4651	419.6301	452.9128	516.4467	551.6954	558.6775	617.136	777.5484	780.453	827.1541	899.1936	914.6466	941.9222	1074.1182	1136.1477	1159.1109	1210.6207	1250.1795	1292.8795	1357.2125	1392.3693	1466.1353	1481.9985	1517.7479	1548.5571	1589.8438	1667.6551	1726.5828	2985.2333	3041.334	3132.732	3189.7511	3224.6567	3603.5434
CNC1=CON=CC1=O	CNc1concc1=O	
InChI=1S/C5H6N2O2/c1-6-4-3-9-7-2-5(4)8/h2-3,6H,1H3	InChI=1S/C5H6N2O2/c1-6-4-3-9-7-2-5(4)8/h2-3,6H,1H3
