18
gdb 8547	3.95906	2.20018	1.82829	1.8147	70.66	-0.2351	0.0763	0.3114	788.5537	0.154885	-347.760928	-347.754448	-347.753503	-347.791008	26.725	
C	 0.0733047509	 1.5444287908	 0.0188515252	-0.495493
C	-0.0185487806	 0.0369582552	 0.0014492727	 0.334622
C	 0.4448728633	-0.7221396404	-1.2782444941	-0.282509
C	-0.6869137061	-1.752820104	-1.0691615137	 0.110739
O	-0.357971673	-2.7073102438	-0.0349527428	-0.305877
C	-0.7436609664	-1.7732254131	 0.9982807736	 0.110739
C	 0.3743958677	-0.7474824255	 1.2894137529	-0.282509
C	-1.3657174446	-0.8026408515	-0.0438145946	-0.142888
H	 1.1200429178	 1.8715644044	 0.0508311312	 0.118914
H	-0.3824157686	 1.9839634184	-0.8757584662	 0.112424
H	-0.4310684838	 1.9664779464	 0.8955961596	 0.112424
H	 0.2502261588	-0.1173226298	-2.1715324301	 0.094995
H	 1.4678389258	-1.1075846558	-1.3159237484	 0.099542
H	-1.1520342474	-2.2301513614	-1.9338196146	 0.075403
H	-1.2552489512	-2.2672655482	 1.8265427605	 0.075403
H	 1.3939638558	-1.1341494935	 1.3755351116	 0.099542
H	 0.1307194358	-0.1602961726	 2.1824358339	 0.094995
H	-2.3819867543	-0.4173334556	-0.0679064468	 0.069534
216.683	236.5717	273.432	350.9538	385.9609	444.6954	591.5047	660.0135	753.9237	809.8901	832.4585	832.6154	857.2336	899.8639	923.5018	961.5955	973.1683	984.2877	994.1566	1019.1522	1104.7515	1110.1822	1147.4129	1150.2819	1177.0723	1186.0652	1239.9108	1247.7827	1257.9131	1275.872	1296.7731	1327.4374	1355.0842	1413.9405	1461.308	1475.5128	1491.4364	1492.4221	3016.4427	3034.171	3036.6938	3080.1246	3086.5079	3086.8214	3089.7455	3096.9373	3099.719	3146.585
CC12CC3OC(C1)C23	C[C@@]12C[C@H]3O[C@@H](C1)[C@@H]23	
InChI=1S/C7H10O/c1-7-2-4-6(7)5(3-7)8-4/h4-6H,2-3H2,1H3	InChI=1S/C7H10O/c1-7-2-4-6(7)5(3-7)8-4/h4-6H,2-3H2,1H3/t4-,5+,6+,7-
