20
gdb 115055	2.63551	1.18527	0.87804	2.4382	75.32	-0.2477	0.0131	0.2608	1343.7647	0.171582	-440.300966	-440.29174	-440.290796	-440.336031	33.529	
C	-0.1354902767	 1.715319541	-0.064166407	-0.393111
C	-0.0082427176	 0.2115785979	 0.1973751037	-0.185326
C	-1.326163459	-0.5329280471	 0.0071191427	 0.085032
O	-1.7504750611	-0.3977503433	-1.3880645411	-0.231128
C	-1.91093493	-1.653448022	-1.849891705	 0.118894
N	-1.7304909547	-2.6435067882	-1.0805433221	-0.293344
C	-1.3399337478	-2.0783700717	 0.230648628	-0.028884
C	-0.0381313308	-2.7583977873	 0.6747510401	-0.058638
O	-0.2279588351	-4.1535333434	 0.7638012953	-0.426843
H	 0.8241105759	 2.2198517387	 0.0804068283	 0.116775
H	-0.4696578864	 1.9039519758	-1.0877727077	 0.136337
H	-0.861198448	 2.174663246	 0.6161485704	 0.116383
H	 0.7499493039	-0.2195237697	-0.4653912662	 0.111873
H	 0.3345965468	 0.0394844636	 1.2248903497	 0.108729
H	-2.1043993653	-0.0501614587	 0.6078319653	 0.094967
H	-2.1960766804	-1.7141249948	-2.8949041575	 0.143666
H	-2.108529285	-2.3542901636	 0.9616637306	 0.097707
H	 0.7719418914	-2.5069878887	-0.0276451106	 0.086601
H	 0.2608157776	-2.4121093995	 1.6698884308	 0.105218
H	-0.6675519176	-4.4089986349	-0.0578896877	 0.29509
32.2033	100.8442	129.6977	152.355	224.9228	251.2019	305.8902	352.8457	451.1254	483.7763	490.9551	589.894	746.6003	792.3877	816.5545	860.4962	887.7051	940.5696	969.2781	999.8381	1047.4959	1057.3151	1083.9878	1096.2191	1135.9822	1145.9757	1163.0511	1223.582	1287.5635	1301.8576	1316.1493	1328.9548	1330.5957	1367.9819	1393.1853	1406.9617	1412.5672	1444.4093	1475.4729	1498.148	1507.5176	1509.8152	1707.7864	2979.312	3032.5215	3035.3633	3038.4641	3051.4522	3069.6285	3080.2306	3106.9734	3123.7866	3209.7215	3766.7558
CCC1OC=NC1CO	CC[C@H]1OC=N[C@H]1CO	
InChI=1S/C6H11NO2/c1-2-6-5(3-8)7-4-9-6/h4-6,8H,2-3H2,1H3	InChI=1S/C6H11NO2/c1-2-6-5(3-8)7-4-9-6/h4-6,8H,2-3H2,1H3/t5-,6+/m0/s1
