20
gdb 52811	2.84793	1.11388	0.94465	1.6895	88.4	-0.2269	0.0415	0.2684	1351.061	0.169382	-365.947985	-365.93847	-365.937526	-365.983101	35.027	
C	 0.018794	 1.5266700348	-0.07312055	-0.500279
C	 0.0237010401	 0.0715293416	-0.0255316318	 0.030151
C	 0.027782033	-1.1334784017	 0.0048070987	 0.118267
C	 0.0424542113	-2.5881517191	 0.0421548575	 0.12692
C	 0.9367307525	-3.1644500099	-1.0539895427	-0.434079
C	 0.2747115549	-3.2479895075	 1.4463044867	-0.299261
C	-1.1239050836	-3.8324895315	 1.311451199	-0.01113
C	-2.1311612754	-2.7822146094	 1.0756294906	-0.240555
N	-1.3376533842	-3.2484805556	-0.0757556783	-0.153903
H	 0.9154484948	 1.9102603796	-0.5723876546	 0.149782
H	-0.8511861349	 1.9005731009	-0.6242560694	 0.1518
H	-0.0133923029	 1.9613090228	 0.9321038346	 0.147208
H	 1.9722702283	-2.8398407428	-0.9149488626	 0.117796
H	 0.8983578752	-4.2573173637	-1.0298660486	 0.117654
H	 0.5914133505	-2.8296234126	-2.0355735938	 0.130842
H	 1.0722309487	-3.9928311198	 1.414467551	 0.11013
H	 0.4441847462	-2.5769179892	 2.2918239625	 0.107404
H	-1.3968695006	-4.8589570002	 1.5345695831	 0.09214
H	-3.1711662566	-3.087581	 1.0112309988	 0.118263
H	-1.9721963174	-1.7737028467	 1.4490146691	 0.12085
32.653	89.6346	104.6838	195.6335	242.6946	266.8854	294.7881	337.8189	386.7375	445.8949	493.1411	537.1688	591.3751	751.6864	770.3062	794.1681	876.7401	896.6472	916.76	976.3614	1008.5526	1051.2279	1053.9649	1057.9126	1067.4991	1106.7556	1111.7392	1143.6604	1155.8593	1183.4678	1230.856	1268.7956	1305.7031	1365.9281	1403.8107	1414.0863	1477.3885	1478.4892	1480.4248	1484.3247	1492.9783	1502.908	2359.7945	3026.8054	3040.446	3064.3437	3087.4113	3088.5848	3111.474	3116.7439	3119.9247	3125.1666	3160.2466	3200.8988
CC#CC1(C)CC2CN12	CC#C[C@@]1(C)C[C@H]2CN12	
InChI=1S/C8H11N/c1-3-4-8(2)5-7-6-9(7)8/h7H,5-6H2,1-2H3	InChI=1S/C8H11N/c1-3-4-8(2)5-7-6-9(7)8/h7H,5-6H2,1-2H3/t7-,8-,9?/m0/s1
