13
gdb 7404	3.53237	1.74046	1.18375	2.5307	57.56	-0.2437	-0.0895	0.1542	938.0175	0.095362	-431.963077	-431.955071	-431.954127	-431.996125	29.019	
N	 0.4203186274	 0.2444789316	 0.961312555	-0.553944
C	 0.089130204	 0.0323688081	-0.3517291581	 0.259561
N	 0.5356378111	 0.6141160362	-1.3993664957	-0.481427
C	-1.0083543091	-1.0025986423	-0.5949805012	 0.282614
O	-1.6293379783	-1.0394728718	-1.6277183633	-0.274863
C	-1.334059967	-2.0708973534	 0.4944924646	 0.339489
N	-2.2835689772	-2.922148046	 0.0694769192	-0.500622
O	-0.7873760858	-2.1254946411	 1.5871450769	-0.370635
H	 1.2445488441	 0.795639377	 1.1444590075	 0.245496
H	 0.2002370592	-0.5012720558	 1.6128324922	 0.283316
H	 1.2719318576	 1.2823904812	-1.1587046357	 0.207949
H	-2.6730126802	-2.7929552019	-0.8510120824	 0.288256
H	-2.5910451857	-3.6685961919	 0.6695044609	 0.27481
46.8753	65.5641	264.414	303.13	343.8975	384.4371	404.5777	437.3317	474.6593	562.624	574.0091	608.1213	641.086	686.3166	699.2173	844.7165	883.9604	1054.2516	1100.1981	1138.9203	1141.9197	1367.1832	1416.6197	1582.8424	1621.1852	1698.2461	1780.8171	1812.9671	3441.5716	3491.1384	3592.7174	3658.3588	3735.0854
NC(=N)C(=O)C(N)=O	NC(=N)C(=O)C(=O)N	
InChI=1S/C3H5N3O2/c4-2(5)1(7)3(6)8/h(H3,4,5)(H2,6,8)	InChI=1S/C3H5N3O2/c4-2(5)1(7)3(6)8/h(H3,4,5)(H2,6,8)
