14
gdb 99426	1.74761	1.47534	1.28202	5.2186	72.14	-0.2716	-0.0123	0.2592	1106.4282	0.09866	-395.689821	-395.680047	-395.679103	-395.724509	33.938	
N	 0.1023076432	 1.4791449402	-0.0594744524	-0.499518
C	 0.1114267148	 0.0373866008	-0.064535798	-0.182891
C	 0.8807060651	-0.5153414001	 1.2056421071	-0.251657
C	 0.853207015	-1.9817252472	 1.2088967138	 0.312027
C	 0.8028545336	-3.1789030854	 1.1636894651	-0.386333
C	 2.2766098794	-0.0313270805	 1.1714607056	 0.333127
N	 3.3748513141	 0.316698649	 1.1067436515	-0.323435
C	 0.2044507135	 0.0096974698	 2.411246484	 0.321387
N	-0.3769265469	 0.4256883981	 3.3174989439	-0.326442
H	 0.1508540301	 1.8632780568	-0.9927887097	 0.251496
H	-0.7086844002	 1.8597674778	 0.4113883918	 0.254931
H	-0.8753775694	-0.4435717436	-0.0509677681	 0.130485
H	 0.6559073228	-0.3350842179	-0.934842602	 0.145875
H	 0.7699092247	-4.2411036377	 1.1399276073	 0.220948
103.0534	116.8111	125.9782	140.3048	150.0546	169.9256	226.9885	352.1308	356.7466	481.9245	489.5343	558.4286	575.7287	583.8502	647.1664	673.7827	685.9993	755.1386	883.8652	985.3122	1057.2897	1115.8312	1119.1532	1242.4988	1352.7972	1393.8845	1487.2642	1662.3373	2252.0854	2367.857	2374.7749	3018.3406	3115.133	3497.1137	3549.1926	3638.328
NCC(C#C)(C#N)C#N	NCC(C#C)(C#N)C#N	
InChI=1S/C6H5N3/c1-2-6(3-7,4-8)5-9/h1H,3,7H2	InChI=1S/C6H5N3/c1-2-6(3-7,4-8)5-9/h1H,3,7H2
