16
gdb 28384	3.21645	1.37174	0.96715	5.9511	82.1	-0.1652	-0.0184	0.1468	1157.1931	0.126429	-434.111874	-434.103666	-434.102722	-434.14437	31.707	
N	 0.1667336614	 1.4391937109	 0.026288867	-0.610245
C	-0.0216840796	 0.0324240874	-0.0067726467	 0.243729
C	-1.1821967226	-0.7013040616	-0.0365711696	-0.146942
C	-1.1725181841	-2.1028991661	-0.0579419166	-0.229643
C	 0.0303504227	-2.8525991486	-0.0613014721	 0.316347
O	 0.1898013345	-4.0926918009	-0.0715579971	-0.484923
C	 1.2400367386	-2.0159885857	-0.0286354298	 0.331698
N	 2.4134403286	-2.6899588052	-0.0676355676	-0.557586
H	 2.2238567306	-3.6856562358	 0.0454383663	 0.279373
H	 3.2518807667	-2.3104844333	 0.3402746144	 0.253698
N	 1.1633526582	-0.683488786	-0.0031087179	-0.339746
H	-0.1784065005	 1.8923921056	-0.8140409791	 0.248382
H	-0.3050154274	 1.8679844329	 0.8156022784	 0.24823
H	-2.1259181949	-0.1660479475	-0.0382689873	 0.090478
H	-2.1067604181	-2.6530365989	-0.0638483252	 0.097826
H	 2.0022407458	-0.1154840171	 0.012191633	 0.259324
110.6842	133.446	215.2658	284.8115	329.1912	342.798	371.1718	445.2422	467.7044	523.969	576.325	601.1969	657.4674	720.4581	754.4952	762.8797	792.5416	815.7086	845.1894	932.0745	983.9421	1087.8692	1134.4977	1203.9067	1239.9077	1262.2783	1319.8677	1349.8297	1448.758	1498.9719	1551.3612	1605.7014	1649.6084	1660.3902	1692.5267	3180.2396	3198.5954	3453.8402	3495.2201	3557.7426	3566.4404	3672.003
NC1=CC=C([O-])C(=[NH2+])N1	NC1=C[CH]C(=O)[C](N)N1	
InChI=1S/C5H7N3O/c6-4-2-1-3(9)5(7)8-4/h1-2,9H,(H4,6,7,8)	InChI=1S/C5H7N3O/c6-4-2-1-3(9)5(7)8-4/h1-2,8H,6-7H2
