21
gdb 71843	2.7081	1.89302	1.62034	0.2949	86.11	-0.2258	0.0216	0.2474	956.3133	0.185046	-349.93384	-349.926709	-349.925765	-349.964626	30.786	
C	 0.0394681845	 1.55144366	-0.0062678711	-0.502477
C	-0.0372626172	 0.0424801498	-0.0508309156	 0.369468
C	 0.2941708724	-0.7233031253	-1.336636618	-0.272319
C	-0.5930231472	-1.8891734443	-0.7778285484	-0.091175
C	 0.3279273343	-2.7362252345	 0.0620708753	-0.071054
C	 0.9174192976	-2.0858585129	 1.0674714675	-0.074283
C	 0.3895331184	-0.6964975305	 1.3110871075	-0.120293
C	-1.1428207465	-0.8737683742	 1.6100508325	-0.229411
C	-1.3552611348	-0.79278928	 0.0987618448	-0.056752
H	 1.0814166517	 1.8910328489	-0.0594935386	 0.116153
H	-0.499572646	 2.0012939521	-0.8476578967	 0.111125
H	-0.3875704096	 1.9549522658	 0.9188002395	 0.11344
H	-0.1875109784	-0.2254886117	-2.185954377	 0.089392
H	 1.3324251743	-0.9605935782	-1.5872174206	 0.087736
H	-1.1947851857	-2.4562362704	-1.4883968217	 0.059377
H	 0.5424907334	-3.7646915453	-0.2079104634	 0.085888
H	 1.6511515182	-2.527861045	 1.7331507475	 0.085959
H	 0.9834566622	-0.1085674828	 2.0126858881	 0.056525
H	-1.4377221474	-1.7717001405	 2.1593622238	 0.090443
H	-1.5678681758	 0.0111754781	 2.0939026546	 0.095383
H	-2.3128270784	-0.4752213991	-0.31977195	 0.056875
209.1418	217.7122	278.4781	361.0955	382.8266	403.2636	488.907	551.731	605.3859	684.5257	708.9142	730.1663	785.2836	820.0801	860.9812	870.9318	905.084	938.9686	950.0961	959.6339	969.114	1001.217	1036.1658	1049.9901	1077.9681	1083.9256	1133.7322	1151.5128	1156.2862	1175.0156	1200.5433	1223.2103	1245.7966	1251.9441	1272.9261	1299.6877	1318.6074	1353.0179	1382.4761	1409.586	1481.1287	1482.1981	1491.3412	1493.0096	1676.4928	3016.1073	3032.79	3045.6013	3077.8501	3081.5149	3086.1925	3090.5254	3092.2336	3102.69	3104.1968	3170.9333	3195.2428
CC12CC3C=CC1CC23	C[C@@]12C[C@H]3C=C[C@@H]1C[C@@H]23	
InChI=1S/C9H12/c1-9-5-6-2-3-7(9)4-8(6)9/h2-3,6-8H,4-5H2,1H3	InChI=1S/C9H12/c1-9-5-6-2-3-7(9)4-8(6)9/h2-3,6-8H,4-5H2,1H3/t6-,7-,8-,9-/m1/s1
