18
gdb 99807	1.99481	1.54629	1.12147	6.2202	73.66	-0.2497	0.0263	0.2759	1151.9224	0.145968	-439.082952	-439.073265	-439.07232	-439.117173	36.02	
C	 0.052263727	 1.5741616047	-0.0128207467	-0.421707
C	 0.0149407786	 0.0220653764	-0.0273201292	-0.149977
C	 0.6873831451	-0.5577744253	 1.2527305833	-0.202418
N	 2.0986346931	-0.1470942826	 1.367342906	-0.535568
H	 2.5993535321	-0.760320938	 2.0007742176	 0.254097
H	 2.3493964224	-0.3357529842	-0.3386695931	 0.317632
H	 2.1790637648	 0.7953593355	 1.734085941	 0.251524
C	-1.3737035634	-0.432778462	-0.030160795	 0.366736
C	-2.5141344968	-0.801733267	 0.0465514832	-0.448359
C	 0.7240011619	-0.4375738616	-1.3423943146	 0.433927
O	 0.1188670339	-0.6543693703	-2.3557492761	-0.333955
O	 2.0564990778	-0.5098129197	-1.2737550801	-0.391008
H	 1.0816864263	 1.9428927317	-0.0480224821	 0.121836
H	-0.4771720252	 1.9648025406	-0.8839248112	 0.157351
H	-0.4363248558	 1.9567373948	 0.8884620586	 0.124239
H	 0.0836739446	-0.2588527052	 2.1188995509	 0.119873
H	 0.6594985683	-1.6494665031	 1.1981115213	 0.138062
H	-3.5227858248	-1.1331706549	 0.0731428963	 0.197715
65.8334	143.1027	150.12	189.9793	236.9549	259.5866	304.9748	309.9106	346.8165	391.5547	463.8726	507.6991	532.6687	611.6873	644.3579	654.0801	741.58	761.4023	847.611	891.9192	943.7723	992.5482	1008.4779	1049.6838	1060.9156	1168.6222	1179.9041	1235.7599	1255.8299	1344.8622	1395.8068	1418.6158	1489.3279	1495.0141	1499.5038	1513.4456	1651.6417	1859.406	2242.0422	3023.2613	3041.8247	3097.2924	3115.0323	3137.0826	3184.9766	3501.9057	3515.7325	3594.6304
CC(C[NH3+])(C#C)C([O-])=O	C[C@@](CN)(C#C)C(=O)O	
InChI=1S/C6H9NO2/c1-3-6(2,4-7)5(8)9/h1H,4,7H2,2H3,(H,8,9)	InChI=1S/C6H9NO2/c1-3-6(2,4-7)5(8)9/h1H,4,7H2,2H3,(H,8,9)/t6-/m0/s1
