18
gdb 69400	4.11345	1.11802	0.98437	3.947	78.6	-0.2311	-0.0245	0.2066	1216.9328	0.14733	-401.94108	-401.932807	-401.931863	-401.974145	31.361	
C	-0.0841992788	 1.5581617617	 0.0086871458	-0.498857
C	 0.0815874002	 0.0616972329	-0.018459335	 0.305534
N	-0.7687959734	-0.8016453402	 0.8533936694	-0.362238
C	 0.6970615305	-0.7512346196	 1.0706555766	-0.133047
C	 1.4531851868	-1.927499346	 0.4466162477	-0.119986
C	 0.9488625906	-3.2777324689	 0.9433217248	 0.149305
O	 1.6658510419	-4.2062354255	 1.2169665806	-0.257411
C	 1.173214947	-1.7408068792	-1.0393450018	-0.103018
C	 0.4407999219	-0.6531872847	-1.2843613495	-0.105259
H	 0.7870989028	 2.0586934128	-0.4264798456	 0.132164
H	-0.966754949	 1.8671685668	-0.5630070634	 0.130532
H	-0.2046737077	 1.9228611746	 1.0339994638	 0.117991
H	-1.2118775454	-0.2171261955	 1.5617473126	 0.226619
H	 1.0722692701	-0.2988774684	 1.9824219767	 0.095881
H	 2.5275476213	-1.8880741427	 0.6593074891	 0.098296
H	-0.1554458791	-3.3397325606	 1.0233106922	 0.105081
H	 1.5225159191	-2.453564668	-1.777185376	 0.114033
H	 0.1243599712	-0.3123759895	-2.2634180279	 0.10438
64.583	121.9633	206.3692	210.5985	264.1636	339.9943	398.1273	412.6585	501.3229	549.2073	622.7055	728.8085	763.4396	812.2579	839.9811	914.9362	921.5136	928.4833	957.4629	974.1447	1037.951	1061.299	1070.9109	1083.7792	1115.0361	1131.4625	1163.0219	1242.942	1279.1109	1297.0973	1320.0653	1370.3222	1405.9206	1414.1775	1430.3074	1484.6258	1500.7565	1661.3838	1821.4625	2934.2488	3028.2491	3049.4364	3092.0587	3102.4116	3166.4767	3191.6269	3216.1574	3465.3294
CC12NC1C(C=O)C=C2	C[C@]12N[C@H]1[C@@H](C=O)C=C2	
InChI=1S/C7H9NO/c1-7-3-2-5(4-9)6(7)8-7/h2-6,8H,1H3	InChI=1S/C7H9NO/c1-7-3-2-5(4-9)6(7)8-7/h2-6,8H,1H3/t5-,6+,7-/m1/s1
