16
gdb 26432	4.26448	1.16049	0.91746	2.1425	77.08	-0.2108	-0.0053	0.2055	1217.5809	0.125802	-434.099567	-434.091237	-434.090292	-434.133487	29.55	
C	 0.0008330939	 1.4714276945	 0.0161703457	-0.340126
N	 0.0274799779	 0.0094049514	-0.0229288132	-0.181935
C	 0.0773109903	-0.6909982859	 1.1690623903	 0.073745
N	 0.0995830859	-0.0713560541	 2.2817167347	-0.477254
C	 0.0022419495	-0.6249088134	-1.2409647435	 0.557903
N	-0.0442456923	-0.0733927068	-2.4159304517	-0.373585
C	-0.0503785508	-1.1576723369	-3.2898647705	-0.102651
C	-0.0070689144	-2.3086616084	-2.5910403506	-0.05647
O	 0.0277899162	-1.9772340379	-1.2470160373	-0.197947
H	 0.8938978916	 1.8424046028	 0.5245900272	 0.147914
H	-0.0374274773	 1.8379039789	-1.0070289078	 0.169435
H	-0.8729841008	 1.8087645018	 0.5786016261	 0.14791
H	 0.0936531675	-1.7725655353	 1.0303865032	 0.129043
H	 0.1357914964	-0.7377923382	 3.0498643082	 0.228908
H	-0.0857849317	-1.0172810995	-4.3583971521	 0.128079
H	 0.0058938981	-3.3588209529	-2.8207176688	 0.14703
52.756	73.5303	129.6663	204.6063	256.2105	316.7155	339.1222	466.8507	502.9835	610.6371	696.727	755.7759	759.051	814.1376	864.1359	922.483	934.7711	1027.6373	1057.7007	1075.927	1131.3703	1146.7467	1161.2473	1173.6992	1229.3821	1313.689	1348.976	1420.1927	1437.9651	1465.2817	1485.7227	1505.112	1583.5276	1652.1204	1712.074	3062.1907	3123.8105	3125.6651	3187.8989	3265.9385	3311.4098	3515.4675
CN(C=N)C1=NC=CO1	CN(C=N)c1ncco1	
InChI=1S/C5H7N3O/c1-8(4-6)5-7-2-3-9-5/h2-4,6H,1H3	InChI=1S/C5H7N3O/c1-8(4-6)5-7-2-3-9-5/h2-4,6H,1H3
