17
gdb 48546	2.91202	1.47739	1.41772	2.2946	73.4	-0.2413	-0.0228	0.2185	988.5303	0.137136	-421.807268	-421.800145	-421.799201	-421.839031	27.655	
O	-0.1546359749	 0.0247394254	-0.1238416298	-0.274162
C	-0.0051719424	 1.2109424988	 0.0633993115	 0.017638
C	 1.2750933765	 1.9063843229	-0.0084341401	 0.241494
C	 1.8796496988	 3.0417218778	 0.8756104328	-0.157697
C	 3.1970731096	 2.2678407106	 0.955909265	-0.233445
C	 2.7049970071	 1.3503812458	-0.2122198244	-0.140617
C	 3.1101271808	 1.95677304	-1.5522980723	-0.086089
O	 2.5437209367	 3.2822257873	-1.5313956864	-0.268007
C	 1.5333952091	 3.2915721467	-0.558209681	 0.068478
H	-0.8685621029	 1.8699643767	 0.315743542	 0.064097
H	 1.3844218718	 3.5687369892	 1.6839044006	 0.100843
H	 4.1153319229	 2.8376669405	 0.7807954222	 0.108417
H	 3.2805825589	 1.7172092022	 1.8947368481	 0.115911
H	 2.8564572438	 0.2774302409	-0.1180799903	 0.102925
H	 4.1928221796	 2.0532234949	-1.678452621	 0.114011
H	 2.6981451455	 1.3880995003	-2.3979286522	 0.109469
H	 0.7067025891	 3.9531211599	-0.7912554947	 0.116733
91.1923	161.8555	226.0186	261.8154	373.0596	453.6428	509.8689	636.7701	668.1366	725.6673	791.3659	810.7495	858.2788	889.2509	910.0604	962.2788	997.6345	1008.2435	1021.6519	1041.748	1064.656	1082.2958	1096.7107	1153.1344	1160.5148	1177.5458	1232.2295	1250.7872	1290.086	1320.6046	1324.1843	1362.8571	1412.6842	1446.8673	1490.705	1512.8317	1791.9945	2855.7342	3007.3025	3050.2008	3084.0721	3116.9177	3149.3344	3172.8056	3189.2305
O=CC12C3CC1COC23	O=C[C@@]12[C@H]3C[C@@H]1CO[C@@H]23	
InChI=1S/C7H8O2/c8-3-7-4-1-5(7)6(7)9-2-4/h3-6H,1-2H2	InChI=1S/C7H8O2/c8-3-7-4-1-5(7)6(7)9-2-4/h3-6H,1-2H2/t4-,5+,6-,7+/m1/s1
