15
gdb 42658	2.71001	2.00133	1.82536	2.8674	67.96	-0.2229	-0.0368	0.1861	823.674	0.115059	-420.634643	-420.628627	-420.627683	-420.664789	25.226	
O	-0.0010489444	 0.0248540043	 0.0093786533	-0.332717
C	-0.0414111796	 1.226735429	 0.0168381694	 0.468818
C	-1.2247742032	 2.1333913865	 0.0775026949	-0.259741
C	-0.6447693326	 3.4167258869	 0.6291932324	 0.096254
O	 0.723811669	 3.2673080556	 0.8787808486	-0.253425
C	 1.1560342751	 2.20456986	-0.0077182494	-0.112544
C	 1.2180133939	 2.7654088974	-1.4115202735	-0.100567
C	 0.086483376	 3.3638077773	-1.7994919502	-0.049952
C	-1.0407183078	 3.372426319	-0.8362953366	-0.131023
H	-2.2122597398	 1.7495201546	 0.2870643113	 0.117545
H	-1.1399210733	 4.0667957988	 1.3378691738	 0.124262
H	 2.0821667345	 1.7826220461	 0.3745479478	 0.107053
H	 2.1251109679	 2.7236704671	-2.0004785267	 0.111373
H	-0.0168628937	 3.8869791789	-2.743615469	 0.109279
H	-1.961387482	 3.8717606285	-1.1117611362	 0.105383
154.9731	335.7189	400.0365	446.8588	541.9376	547.6527	593.0007	674.0311	736.8505	751.5965	777.91	793.5694	827.2891	896.2688	920.4471	945.0618	950.1101	963.641	987.0739	1049.1504	1061.1108	1075.9482	1114.9761	1148.1498	1183.8527	1229.8209	1282.0519	1284.7061	1336.6878	1376.6068	1393.7032	1667.0218	1857.7935	3156.5709	3184.0066	3195.3862	3213.8969	3218.2944	3231.3808
O=C1C2C3OC1C=CC23	O=C1[C@H]2[C@H]3O[C@@H]1C=C[C@@H]23	
InChI=1S/C7H6O2/c8-6-4-2-1-3-5(6)7(3)9-4/h1-5,7H	InChI=1S/C7H6O2/c8-6-4-2-1-3-5(6)7(3)9-4/h1-5,7H/t3-,4+,5-,7-/m0/s1
