18
gdb 78258	3.14616	1.30163	1.11772	2.783	73.66	-0.2374	-0.0446	0.1929	1125.5117	0.146344	-439.03327	-439.024695	-439.02375	-439.066531	31.976	
C	-0.2242490901	 1.3396727736	-0.1683545469	-0.320591
N	 0.206019141	-0.04164644	-0.0152108116	-0.076783
C	 1.5785002972	-0.4842451126	-0.1019338173	-0.097131
C	 0.7900426312	-0.5844867534	 1.1773044375	-0.037469
C	 1.7650873645	 0.4088704629	 1.9020750672	-0.194209
C	 2.4922655042	-0.2694138015	 3.0217543927	 0.151262
O	 3.2691923315	-1.190029349	 2.8728064759	-0.278596
C	 2.5820798666	 0.5041062468	 0.5389699789	 0.121031
O	 3.9096479909	 0.084464647	 0.5625992329	-0.427517
H	 0.4119792608	 2.0885562641	 0.323563377	 0.112317
H	-0.2622832724	 1.5757044009	-1.2356919435	 0.133201
H	-1.2360549345	 1.4356952118	 0.2366438025	 0.129326
H	 1.8494192965	-1.2467050167	-0.8252847148	 0.10457
H	 0.3266372418	-1.4381405465	 1.6602577022	 0.107297
H	 1.3008485151	 1.3300736381	 2.2665696017	 0.081724
H	 2.2591539967	 0.0957217162	 4.0443432812	 0.096553
H	 2.5812807733	 1.5082265144	 0.1039678403	 0.095262
H	 3.9599656857	-0.693862196	 1.1405165441	 0.299751
94.9446	112.0956	165.3152	208.4943	233.0051	270.0622	331.1069	406.8385	466.7162	559.3788	588.741	679.7822	733.2901	756.0011	834.4689	893.0341	914.2394	951.6137	970.2295	1031.4483	1048.9731	1069.2069	1086.4034	1138.6254	1162.3153	1184.3689	1191.272	1222.9197	1246.9894	1267.2573	1311.0365	1352.346	1383.1333	1428.2493	1453.9237	1471.6249	1494.9532	1502.1209	1781.6706	2906.1362	3004.9816	3057.2509	3067.1756	3079.922	3113.0142	3161.678	3172.9981	3676.0368
CN1C2C1C(C=O)C2O	CN1[C@@H]2[C@H]1[C@@H](C=O)[C@H]2O	
InChI=1S/C6H9NO2/c1-7-4-3(2-8)6(9)5(4)7/h2-6,9H,1H3	InChI=1S/C6H9NO2/c1-7-4-3(2-8)6(9)5(4)7/h2-6,9H,1H3/t3-,4-,5-,6-,7?/m1/s1
