17
gdb 5919	3.70207	1.25859	1.23334	2.5281	68.92	-0.2696	-0.05	0.2196	1046.5781	0.139354	-363.891342	-363.882065	-363.881121	-363.925854	32.401	
C	 0.2686516	 1.5599723613	 0.1215480569	-0.415742
C	 0.0442951988	 0.0333180296	 0.0250887954	 0.069807
C	 0.7070926304	-0.6883128025	 1.2189331073	-0.406156
C	-1.4804630464	-0.3111587286	-0.0570734217	-0.280672
C	-2.2658201172	 0.2706350057	 1.1053291295	 0.133084
O	-2.3620555228	-0.260341388	 2.1823856473	-0.229333
C	 0.6613010564	-0.4509239684	-1.2211186286	 0.272015
N	 1.142995107	-0.8289813525	-2.2015724886	-0.336936
H	 1.3359665286	 1.7914987872	 0.0877139233	 0.143313
H	-0.22061374	 2.0879579859	-0.7016223444	 0.134967
H	-0.1299515183	 1.9391461605	 1.0672601262	 0.133993
H	 0.2222237031	-0.3916052417	 2.1513815935	 0.148487
H	 0.6177546241	-1.7728922689	 1.1185414857	 0.138469
H	 1.7688500607	-0.4344214594	 1.2745661964	 0.133392
H	-1.8848389044	 0.0769938842	-0.9971308485	 0.126012
H	-1.5983062773	-1.3983325966	-0.0444245044	 0.143875
H	-2.7586937927	 1.2483932522	 0.9085768447	 0.091425
33.3558	87.6445	153.8443	191.922	235.6039	248.9819	269.1399	335.9803	358.2077	383.1451	523.1098	575.4466	584.5718	687.3647	856.5111	918.7408	927.4705	954.8901	991.4502	1042.5171	1059.073	1148.2256	1211.6809	1225.3553	1275.913	1330.5123	1404.6195	1426.3891	1429.5133	1473.2944	1481.8385	1488.102	1499.8435	1511.2557	1825.7218	2352.4	2884.9556	3044.5966	3052.2231	3055.0807	3113.2087	3119.5927	3126.8499	3129.1119	3140.2531
CC(C)(CC=O)C#N	CC(C)(CC=O)C#N	
InChI=1S/C6H9NO/c1-6(2,5-7)3-4-8/h4H,3H2,1-2H3	InChI=1S/C6H9NO/c1-6(2,5-7)3-4-8/h4H,3H2,1-2H3
