17
gdb 5320	4.39183	1.5115	1.217	1.1935	69.03	-0.2391	0.0074	0.2465	1004.4381	0.142876	-363.904058	-363.896356	-363.895412	-363.936357	28.396	
C	 0.4383045967	 1.5908664619	-0.2645265152	-0.397977
C	 0.0419972228	 0.1466889405	 0.0649990624	-0.075206
C	 0.2201584632	-0.781682553	-1.1504750288	-0.383531
C	 0.7900030979	-0.3859636785	 1.2517313176	 0.264268
C	 1.7974887977	 0.1574546332	 1.9793038233	-0.123467
O	 2.149598518	-0.7275606192	 2.9650663756	-0.143739
C	 1.3200282553	-1.7754953388	 2.7747574368	 0.069884
N	 0.4976751939	-1.6433665421	 1.78897406	-0.307279
H	 1.4955160637	 1.6541034572	-0.5469191869	 0.116331
H	-0.1506598404	 1.9668542392	-1.1061513907	 0.115785
H	 0.2735929309	 2.2582002703	 0.5873597653	 0.116254
H	-1.0240356859	 0.1341292507	 0.3314318823	 0.095158
H	 1.2632003319	-0.7846200303	-1.4860170733	 0.112752
H	-0.057511296	-1.8073445584	-0.8964755653	 0.137908
H	-0.4046369703	-0.4471475426	-1.984851259	 0.108303
H	 2.3454398386	 1.0824497855	 1.9530313682	 0.145401
H	 1.4231823419	-2.6060168157	 3.4557161178	 0.149157
57.8405	165.2809	198.5057	238.4309	272.9779	320.5615	427.4094	465.9992	620.4261	644.3256	722.8648	776.4431	848.9405	883.6909	931.2662	936.4897	967.769	983.0086	1096.8297	1103.6697	1122.6976	1140.8304	1175.8939	1241.1643	1252.7071	1334.3876	1341.7326	1370.8554	1395.8766	1417.6367	1489.3639	1492.2564	1501.9774	1513.5454	1561.7021	1622.6974	3008.304	3029.6774	3034.3552	3095.6637	3101.1444	3108.9821	3125.7877	3272.3546	3300.7809
CC(C)C1=COC=N1	CC(C)c1cocn1	
InChI=1S/C6H9NO/c1-5(2)6-3-8-4-7-6/h3-5H,1-2H3	InChI=1S/C6H9NO/c1-5(2)6-3-8-4-7-6/h3-5H,1-2H3
