16
gdb 10165	2.64709	1.36047	0.93893	2.4192	63.35	-0.2576	-0.0506	0.2071	1197.5978	0.126301	-420.876647	-420.867301	-420.866357	-420.91201	30.537	
C	-0.0158991755	 1.4496399157	-0.1843241894	-0.231165
O	-0.0323400105	 0.0463195501	-0.0441355224	-0.243566
C	 0.5116521299	-0.6244835277	-1.1595170238	-0.078898
C	 0.4654922603	-2.1123676964	-0.8509287887	-0.194539
C	 0.892785517	-2.9819955593	-2.0283046819	 0.140088
O	 1.1561432564	-2.5476691974	-3.1186318288	-0.23547
C	 1.2986568986	-2.494402349	 0.3731798533	 0.150868
O	 1.3268279359	-3.608469084	 0.8262807687	-0.24874
H	 1.0091263825	 1.8347730586	-0.2982656661	 0.110132
H	-0.6052166263	 1.7765561829	-1.0544651224	 0.112077
H	-0.4555350018	 1.8722823243	 0.7217689795	 0.133583
H	-0.0514953089	-0.4056765727	-2.0778333358	 0.115481
H	 1.5523669132	-0.3064103637	-1.3410653689	 0.101418
H	-0.5644148286	-2.4128269748	-0.6078188682	 0.146211
H	 0.9467836533	-4.0636916911	-1.790438055	 0.117551
H	 1.9014128448	-1.6681203454	 0.8047656901	 0.10497
55.8447	82.1361	97.9335	119.6139	144.0538	214.5002	229.9468	317.6266	358.2414	399.1433	592.059	670.0134	829.1653	878.5734	910.9085	984.7867	1076.9487	1117.0518	1139.9684	1163.4875	1186.0058	1214.2963	1232.2669	1249.0209	1304.9984	1400.7446	1411.5395	1428.5895	1481.7197	1485.548	1503.6459	1524.0843	1806.0083	1839.8153	2914.5825	2935.6884	2966.9429	2980.1767	3017.2696	3024.9971	3028.0557	3121.8845
COCC(C=O)C=O	COCC(C=O)C=O	
InChI=1S/C5H8O3/c1-8-4-5(2-6)3-7/h2-3,5H,4H2,1H3	InChI=1S/C5H8O3/c1-8-4-5(2-6)3-7/h2-3,5H,4H2,1H3
