27
gdb 122965	5.44067	0.50059	0.47805	0.831	94.73	-0.2483	0.0867	0.3351	2465.41	0.249392	-390.701755	-390.689536	-390.688592	-390.740426	42.989	
C	-0.0572920198	 1.5139344309	 0.0389498474	-0.381971
C	 0.01021256	-0.0134862029	-0.0288897189	-0.182507
C	 0.7385559214	-0.5104695048	-1.2704438272	-0.028852
O	 0.7512377424	-1.9207577041	-1.2585739944	-0.251028
C	 1.4005458963	-2.4897311311	-2.3754096388	-0.055188
C	 1.3082496787	-4.0145108132	-2.2939547804	 0.024324
C	-0.1570356362	-4.4698652668	-2.2981022504	-0.389138
C	 2.1370590792	-4.6480920732	-3.425567456	-0.168978
C	 2.2612510129	-6.1729954353	-3.3447678079	-0.390164
H	 0.9441892454	 1.9580184417	 0.0592212114	 0.115622
H	-0.5855721006	 1.9294570851	-0.8263863316	 0.115643
H	-0.5842048445	 1.844888714	 0.9385129732	 0.116508
H	 0.5197250571	-0.4119350665	 0.85597929	 0.105665
H	-0.9996929377	-0.4395991793	-0.0253889606	 0.105381
H	 0.2381825328	-0.1388855077	-2.1824616952	 0.080389
H	 1.7706171232	-0.1171199125	-1.2918550373	 0.079901
H	 0.9342550964	-2.1317956005	-3.3116059799	 0.077663
H	 2.4577888439	-2.1731948681	-2.4015679808	 0.078217
H	 1.7575042141	-4.3062687545	-1.3339403668	 0.077677
H	-0.2486069544	-5.5430026062	-2.1094381622	 0.10989
H	-0.7203646096	-3.9384117003	-1.5280188839	 0.130112
H	-0.62684161	-4.2586830798	-3.2671455846	 0.1039
H	 1.6954707889	-4.3695717997	-4.3927525309	 0.092084
H	 3.1437028345	-4.2099454901	-3.4143664797	 0.090777
H	 2.6956941946	-6.4835130266	-2.3877800669	 0.113712
H	 1.2902356475	-6.6669460027	-3.4443732	 0.119524
H	 2.9071288135	-6.5546867859	-4.1417135176	 0.110836
43.3131	57.8853	78.878	90.689	132.5061	158.194	210.4426	213.3833	235.3577	257.5889	265.7271	313.3873	377.917	417.8976	496.1283	527.1949	765.0166	777.0592	831.888	899.9617	907.2203	926.7643	933.1521	979.0909	1008.8501	1025.6115	1047.3031	1061.8272	1138.8318	1157.5626	1169.1944	1181.379	1188.7743	1201.4223	1262.7087	1272.0768	1296.0679	1311.6094	1313.5739	1333.9038	1377.6767	1380.9427	1398.9575	1407.6325	1413.2711	1414.9595	1452.4944	1484.9042	1492.1337	1493.2919	1500.4665	1501.3508	1505.2797	1507.6348	1512.1111	1514.4222	1535.4661	2931.2101	2944.4935	2962.6861	2965.0268	3005.1538	3011.7561	3028.8172	3031.7015	3033.7627	3038.4744	3043.604	3070.8364	3097.9519	3098.4397	3099.3808	3107.611	3109.5992	3129.3783
CCCOCC(C)CC	CCCOC[C@@H](C)CC	
InChI=1S/C8H18O/c1-4-6-9-7-8(3)5-2/h8H,4-7H2,1-3H3	InChI=1S/C8H18O/c1-4-6-9-7-8(3)5-2/h8H,4-7H2,1-3H3/t8-/m0/s1
