15
gdb 53862	3.95349	0.82928	0.68842	3.8907	69.26	-0.257	-0.0351	0.222	1514.0338	0.112517	-450.176549	-450.167077	-450.166133	-450.212801	32.718	
N	 0.0094349534	 1.253915851	-0.0234527047	-0.522157
C	 0.0109814399	-0.0901633981	-0.0350155935	 0.404301
O	 0.9973499751	-0.807951646	-0.0718073573	-0.383064
C	-1.3930788183	-0.6967617931	 0.0033842732	 0.304164
N	-2.410501998	 0.0803560415	 0.0419095984	-0.561456
N	-1.328123405	-2.0524606459	-0.0105548453	-0.331466
C	-2.5017136061	-2.8885028914	 0.0190705013	-0.275021
C	-2.1427677104	-4.3059875134	-0.0042224395	 0.256664
N	-1.8667630208	-5.4266578358	-0.0224085756	-0.281197
H	 0.8802614096	 1.7555989564	-0.0462775964	 0.269953
H	-0.8788055883	 1.7306075774	 0.0081792263	 0.285649
H	-3.3017781233	-0.4136066983	 0.0653328662	 0.218179
H	-0.395611057	-2.443639584	-0.0427982225	 0.285057
H	-3.1016441687	-2.6986483147	 0.9223293495	 0.165193
H	-3.156864492	-2.6836329156	-0.84153058	 0.1652
20.2007	70.3681	97.2247	100.585	237.0948	312.0053	334.7225	375.3789	381.9565	474.3788	503.1888	521.3032	585.135	627.7341	664.746	818.5094	837.4999	849.6092	969.9267	1020.5929	1093.6491	1102.5802	1195.8357	1252.3449	1260.3898	1369.1023	1407.0755	1499.0108	1537.5538	1589.7645	1713.9539	1800.4853	2377.0041	2988.4153	3008.2495	3484.6403	3584.6608	3586.6418	3735.879
NC(=O)C(=N)NCC#N	NC(=O)C(=N)NCC#N	
InChI=1S/C4H6N4O/c5-1-2-8-3(6)4(7)9/h2H2,(H2,6,8)(H2,7,9)	InChI=1S/C4H6N4O/c5-1-2-8-3(6)4(7)9/h2H2,(H2,6,8)(H2,7,9)
