18
gdb 76069	2.05699	1.56923	1.14245	2.9444	79.66	-0.2452	0.0041	0.2493	1146.1318	0.144132	-401.922718	-401.912845	-401.9119	-401.957544	35.474	
C	 0.1146029304	 1.3854960304	 0.2936233272	-0.411004
C	-0.0731248997	-0.0865667174	 0.0201218215	 0.002301
C	 0.6064189766	-0.7807474671	-1.1572440255	-0.246493
C	 1.4661131455	-0.0451615182	-2.0434003651	 0.357298
C	 2.178774058	 0.5456030625	-2.8119132286	-0.451781
N	 0.9840118878	-1.0387234095	 0.2295864032	-0.096665
C	 2.201324653	-0.8148188331	 0.8757390684	 0.386162
C	 3.3820570375	-1.528547656	 0.2517657006	-0.483691
O	 2.2616978095	-0.1741020095	 1.9019608563	-0.342036
H	 1.056119888	 1.7533225878	-0.1188234124	 0.137328
H	-0.7064737724	 1.9520667192	-0.1564555528	 0.120439
H	 0.1220387579	 1.5684762458	 1.3705314887	 0.15248
H	-1.0591668984	-0.4762417676	 0.2722288894	 0.105927
H	 0.0748925356	-1.6040474409	-1.6315836452	 0.123479
H	 2.8040821792	 1.0757788634	-3.4875440566	 0.209088
H	 3.6355525055	-1.0678195769	-0.7083982463	 0.152687
H	 4.2347752869	-1.4581395037	 0.9267374133	 0.143735
H	 3.1407262491	-2.5778701092	 0.059120674	 0.140747
79.3155	101.0482	124.0153	154.205	159.6488	178.8553	253.2033	334.9076	372.8	435.9938	513.6169	572.2774	617.4434	621.8424	658.1485	670.5282	678.257	814.1839	859.9126	954.1573	1014.4337	1035.6606	1054.4798	1061.2391	1108.8984	1157.8343	1179.7734	1205.7101	1362.4295	1374.1505	1394.3341	1413.4422	1433.8662	1471.7648	1478.2261	1486.3496	1488.5165	1787.8254	2232.115	3049.623	3051.2659	3105.8718	3115.7445	3119.4395	3125.1899	3142.4639	3161.5155	3500.1471
CC1C(C#C)N1C(C)=O	C[C@H]1[C@@H](C#C)N1C(=O)C	
InChI=1S/C7H9NO/c1-4-7-5(2)8(7)6(3)9/h1,5,7H,2-3H3	InChI=1S/C7H9NO/c1-4-7-5(2)8(7)6(3)9/h1,5,7H,2-3H3/t5-,7+,8?/m0/s1
