18
gdb 89956	2.79492	1.44683	1.11126	1.0618	73.37	-0.2376	-0.0448	0.1928	1115.2928	0.146928	-439.046656	-439.038323	-439.037379	-439.079667	31.17	
C	-0.6618788445	 1.2559362837	-0.0243842198	-0.390678
C	 0.1337420833	-0.0343868	 0.0002543226	 0.03452
N	 1.3324635147	-0.062346036	-0.9021193316	-0.383109
C	 2.1990340622	-0.5473343486	 0.1835922667	 0.211982
C	 2.8918667439	 0.5990555007	 0.9484514776	-0.110565
O	 1.7169919885	 0.8341708252	 1.7629685181	-0.283445
C	 1.0466303446	-0.3115727315	 1.2223454966	 0.034579
C	 2.8769053944	-1.858517504	-0.011146245	 0.058561
O	 2.6826218416	-2.5708443806	-0.9672746023	-0.259728
H	-0.0207623434	 2.0988749302	 0.2431564879	 0.135441
H	-1.0698710358	 1.4312882828	-1.0245358175	 0.12063
H	-1.4969382489	 1.2124973777	 0.6832790847	 0.114264
H	-0.5221312566	-0.9013049892	-0.160566701	 0.080111
H	 1.2682786656	-0.7543849335	-1.6433149858	 0.234489
H	 3.7418733742	 0.2876718609	 1.57034185	 0.104025
H	 3.15959988	 1.4613905836	 0.3319803717	 0.123669
H	 0.7091627499	-1.0083032525	 1.9932243992	 0.090615
H	 3.5752838066	-2.1557804189	 0.8018577477	 0.08464
96.3422	119.1959	197.9495	210.4197	237.0847	266.9428	375.2033	400.3903	484.2975	555.8289	632.4941	766.55	786.2769	805.1815	844.6179	905.2208	943.9052	975.1395	983.2167	1016.1911	1064.3568	1079.5	1106.4836	1129.595	1157.6223	1181.3279	1201.0472	1250.0497	1288.7743	1318.2089	1347.7086	1362.6624	1396.0251	1415.157	1427.7743	1484.153	1493.5113	1501.6209	1802.6197	2891.1974	3004.6225	3010.5431	3039.5971	3082.9957	3097.6212	3106.1877	3132.9638	3517.5708
CC1NC2(COC12)C=O	C[C@H]1N[C@]2(CO[C@@H]12)C=O	
InChI=1S/C6H9NO2/c1-4-5-6(2-8,7-4)3-9-5/h2,4-5,7H,3H2,1H3	InChI=1S/C6H9NO2/c1-4-5-6(2-8,7-4)3-9-5/h2,4-5,7H,3H2,1H3/t4-,5+,6+/m1/s1
