19
gdb 50765	2.9814	1.2143	0.92608	2.2401	72.43	-0.2526	-0.0295	0.2231	1248.6045	0.159099	-460.159892	-460.151358	-460.150414	-460.193436	31.582	
O	-0.9076937685	 1.0950866395	 0.2094460822	-0.247718
C	 0.2342184214	 0.7620442093	 0.0321217995	 0.145256
C	 1.4205803382	 1.7213449751	 0.0291629812	 0.029634
C	 1.2527005779	 2.8517950328	 1.0506161658	-0.243795
C	 2.1023572274	 4.0996199989	 0.745811148	-0.090546
O	 3.2975897299	 3.8502012789	 0.0227025146	-0.246343
C	 4.1294164061	 2.8212889463	 0.5282756359	-0.090617
C	 3.8004340287	 1.4755598888	-0.1173118137	-0.071206
O	 2.5617658408	 0.9190335085	 0.2828291541	-0.265454
H	 0.5260143711	-0.2915739102	-0.1677833808	 0.096467
H	 1.4713810823	 2.1409308815	-0.9924560382	 0.10595
H	 0.1950977058	 3.1320837456	 1.0891290582	 0.131463
H	 1.5079080182	 2.4326522569	 2.0295020941	 0.114354
H	 1.541524683	 4.7910731105	 0.1093267603	 0.116818
H	 2.3270651032	 4.6267818504	 1.6861073255	 0.096313
H	 5.1603316435	 3.0881758159	 0.2650534428	 0.110138
H	 4.0704167596	 2.7506404574	 1.624063891	 0.100955
H	 3.8240237793	 1.6086277721	-1.2107082478	 0.100062
H	 4.5597808321	 0.735366212	 0.1571793874	 0.10827
77.1763	120.4837	144.1785	217.3485	242.2576	299.5198	353.3846	385.3908	455.7289	531.9064	566.4729	638.6441	786.7634	814.4294	871.3037	890.1005	955.1854	968.9137	1032.5187	1053.752	1083.8904	1118.2632	1137.3204	1154.0452	1174.789	1243.8127	1264.3434	1285.8455	1305.2844	1329.3027	1353.0599	1374.3502	1387.5793	1400.4854	1414.3342	1418.7937	1475.4495	1483.0512	1491.3149	1508.6511	1838.1237	2908.8558	2945.9972	2983.2256	2984.2015	3003.4269	3050.6928	3061.1133	3073.0068	3077.3095	3101.0032
O=CC1CCOCCO1	O=C[C@H]1CCOCCO1	
InChI=1S/C6H10O3/c7-5-6-1-2-8-3-4-9-6/h5-6H,1-4H2	InChI=1S/C6H10O3/c7-5-6-1-2-8-3-4-9-6/h5-6H,1-4H2/t6-/m1/s1
