21
gdb 75025	2.96522	1.24635	0.98205	0.4938	96.22	-0.2057	-0.0229	0.1827	1295.1077	0.183041	-349.990507	-349.981602	-349.980658	-350.023602	34.566	
C	-0.0118641355	 1.54313683	-0.017339098	-0.480675
C	 0.0298194324	 0.0420801988	-0.0233244627	 0.291278
C	 0.134526198	-0.679807096	-1.1586007208	-0.150415
C	 0.0610392142	-2.1196929763	-1.2512238977	-0.085904
C	-0.6610492167	-2.9500882077	-0.4540785908	-0.167707
C	-1.5339037508	-2.5518233869	 0.6372331687	 0.326404
C	-2.7620541444	-3.4069538423	 0.8557273081	-0.483287
C	-1.2896274289	-1.4704554075	 1.4045773913	-0.171755
C	-0.0113318373	-0.6796124922	 1.3082059003	-0.354225
H	 0.8153551233	 1.959593123	 0.5729736829	 0.12413
H	 0.0419685673	 1.957063783	-1.0277371437	 0.120886
H	-0.936245309	 1.9086208452	 0.4479450414	 0.130263
H	 0.2779114404	-0.1481157663	-2.097775886	 0.079123
H	 0.5489580448	-2.5664631676	-2.1155358938	 0.08633
H	-0.7007119305	-4.0004195761	-0.7386379581	 0.079022
H	-3.4138029747	-3.4123875315	-0.0259347139	 0.126363
H	-2.479792669	-4.4503047567	 1.0448878546	 0.123115
H	-3.3471758297	-3.0577004058	 1.7101563324	 0.118498
H	-2.0311770859	-1.1574035385	 2.1356741437	 0.080065
H	 0.8483815097	-1.3611666044	 1.3736840972	 0.114763
H	 0.0662393222	 0.0313041158	 2.135409355	 0.093729
106.2546	160.1293	174.584	206.5708	246.9662	315.7209	327.7077	363.0487	406.1764	438.0114	493.6995	613.9825	641.2838	709.5365	788.2748	817.7881	844.7943	892.3832	906.3299	941.5072	998.2279	1002.3	1008.4433	1058.4524	1068.1401	1078.4314	1097.0534	1164.1388	1193.8545	1250.0816	1277.5652	1327.3563	1345.4008	1375.2008	1409.0241	1410.533	1466.7581	1474.081	1478.1736	1480.6567	1489.6339	1495.279	1589.455	1684.8257	1687.7908	3000.244	3012.0936	3021.3817	3058.0462	3070.7468	3084.4216	3110.9348	3114.1775	3125.895	3136.6097	3151.7725	3153.879
CC1=CC=CC(C)=CC1	CC1=CC=CC(=CC1)C	
InChI=1S/C9H12/c1-8-4-3-5-9(2)7-6-8/h3-6H,7H2,1-2H3	InChI=1S/C9H12/c1-8-4-3-5-9(2)7-6-8/h3-6H,7H2,1-2H3
