18
gdb 72042	2.49171	1.9438	1.52503	2.1619	69.57	-0.2268	0.0666	0.2934	925.7866	0.149558	-439.05255	-439.045185	-439.04424	-439.083692	30.407	
O	-0.1324612143	 1.3567643367	-0.0473832761	-0.468642
C	 0.010641522	-0.0167785165	-0.0214418541	 0.352335
C	 1.1151969047	-0.775567379	-0.7663436708	-0.24532
N	 0.7096424128	-2.1767126803	-0.4561752115	-0.122271
C	 0.583121063	-2.1175015315	 1.0363213094	-0.1834
C	-0.3332698461	-0.9041820871	 1.1750819388	-0.24561
C	-1.1949337899	-0.9198239261	-0.0877039883	 0.352286
O	-2.4689521576	-0.3935930804	-0.1758166831	-0.468643
C	-0.7235718654	-2.1528709313	-0.8675342374	-0.245238
H	 0.5274165717	 1.7413955234	 0.5395450874	 0.284857
H	 1.103663801	-0.601355277	-1.8459044204	 0.11097
H	 2.1221334765	-0.575780883	-0.3850495086	 0.094271
H	 0.1500855214	-3.049903788	 1.4112371522	 0.102506
H	 1.5704590651	-1.9860054668	 1.4894517206	 0.102499
H	-0.6999332474	-0.4825507149	 2.1016656543	 0.089272
H	-3.0617234149	-0.9457162354	 0.3453587722	 0.284876
H	-0.8112599993	-2.0356399084	-1.9512784746	 0.110964
H	-1.2223994332	-3.0809508944	-0.5691406901	 0.094287
217.6214	228.1165	264.5495	267.6342	375.4207	379.3734	461.8725	468.3338	520.6964	609.1061	615.2895	695.8737	708.5519	823.5498	851.8554	899.7587	921.8003	939.1173	967.6529	979.2092	1020.116	1064.2198	1081.2298	1132.0829	1144.2729	1188.7419	1211.3858	1244.368	1244.6851	1268.3457	1277.2371	1293.076	1313.5367	1337.4268	1372.9379	1488.3829	1493.7059	1503.4038	1529.4713	3045.3715	3045.4489	3053.8165	3093.1541	3099.5885	3103.1571	3207.94	3797.7963	3797.9706
OC12CN3CC1C2(O)C3	O[C@@]12CN3C[C@@H]1[C@]2(O)C3	
InChI=1S/C6H9NO2/c8-5-2-7-1-4(5)6(5,9)3-7/h4,8-9H,1-3H2	InChI=1S/C6H9NO2/c8-5-2-7-1-4(5)6(5,9)3-7/h4,8-9H,1-3H2/t4-,5-,6+
