15
gdb 37857	2.75469	2.64904	2.03895	1.5642	60.94	-0.2364	0.0274	0.2638	729.8	0.11636	-457.708038	-457.703085	-457.70214	-457.737168	22.111	
O	-0.0217024712	 1.4397395312	 0.0759018251	-0.259191
C	 1.4185928643	 1.3936889809	-0.0125731942	 0.026338
C	 1.9625822913	 0.8461716655	 1.3674677581	 0.026338
O	 0.8210726875	 0.5914992514	 2.2139287934	-0.259191
C	 0.5386980332	-0.5491665445	 1.3751535775	 0.026338
C	-0.0052914992	-0.0016493005	-0.0048879615	 0.026338
C	 1.3259864437	 0.059538369	-0.8212194191	 0.050012
O	 2.2469030723	-0.8775370394	-0.3343178503	-0.236838
C	 2.0596471315	-0.6788802868	 1.0399967637	 0.050012
H	 1.8692182471	 2.3086571422	-0.3948796539	 0.087285
H	 2.7541183346	 1.4180184966	 1.8500131786	 0.087285
H	-0.0463822396	-1.3263365568	 1.8651291938	 0.087285
H	-0.9312816435	-0.4356987363	-0.3797633763	 0.087285
H	 1.297319084	 0.0828096597	-1.9074152211	 0.100351
H	 2.695604437	-1.3245443394	 1.6398809161	 0.100351
455.5752	463.1844	512.2497	579.1296	661.4843	677.9447	718.9937	786.9662	799.0344	833.2268	867.4238	868.9587	900.0894	903.6151	976.0073	977.4984	982.1042	1041.8839	1043.9155	1058.3213	1087.572	1120.8074	1177.4946	1199.3982	1199.7685	1233.6202	1253.5874	1259.6585	1267.3077	1308.1744	1318.0695	1330.7458	1378.6832	3120.5912	3122.3174	3131.3076	3133.3116	3160.986	3165.0327
O1C2C3OC4C1C2OC34	O1[C@H]2[C@H]3O[C@H]4[C@@H]1[C@@H]2O[C@@H]34	
InChI=1S/C6H6O3/c7-1-2-6-4(8-2)3(7)5(1)9-6/h1-6H	InChI=1S/C6H6O3/c7-1-2-6-4(8-2)3(7)5(1)9-6/h1-6H/t1-,2+,3+,4-,5+,6-
