18
gdb 93567	3.61567	1.02056	0.82934	15.1152	77.34	-0.1694	-0.0183	0.151	1366.101	0.148603	-439.064442	-439.055625	-439.054681	-439.098832	31.969	
C	-0.0588953323	 1.5955005616	-0.0789471893	-0.415284
C	-0.0060289647	 0.0787124948	 0.0595864185	-0.029784
N	 0.7555665412	-0.5492043251	-1.1243149931	-0.278899
H	 0.1421481573	-0.7569792928	-1.9127876934	 0.297763
H	 1.4488021113	 0.1277193383	-1.4453984183	 0.304723
C	 1.4958764311	-1.7864785712	-0.5810752408	-0.291875
C	 1.5855124897	-1.4793391372	 0.8828398206	 0.234653
C	 0.7749859378	-0.4765260958	 1.2192284362	-0.209127
C	 2.5281054606	-2.3650147989	 1.7309210394	 0.292447
O	 2.6060962588	-2.0713538047	 2.9271896333	-0.461847
O	 3.0511652814	-3.2520424725	 1.0180850557	-0.488662
H	 0.9485722691	 2.0249629834	-0.0610509778	 0.14457
H	-0.5742665253	 1.9124068419	-0.9919586779	 0.126484
H	-0.6064892786	 2.008462742	 0.7720438107	 0.166928
H	-1.0242981074	-0.3319915617	 0.000541438	 0.127569
H	 0.8907521998	-2.6690004899	-0.8051030562	 0.165914
H	 2.4626433311	-1.8906858721	-1.0715139208	 0.177883
H	 0.658475229	-0.1022084002	 2.2278674153	 0.136545
47.7127	109.6836	113.5024	155.546	242.3992	299.7877	342.3649	363.8347	490.0766	517.8721	597.6744	742.242	754.1648	784.537	825.8279	838.0474	877.7125	898.1631	927.5676	995.9566	1008.3856	1075.0808	1101.6012	1120.0032	1187.6072	1210.9932	1236.5856	1300.7366	1315.7082	1336.0651	1351.3743	1380.274	1414.5399	1478.8351	1488.4727	1495.8336	1625.0725	1691.2262	1776.5235	3004.5944	3034.7406	3085.073	3107.2998	3127.7059	3161.8902	3228.6156	3443.971	3515.7888
CC1[NH2+]CC(=C1)C([O-])=O	C[C@H]1[NH2]CC(=C1)C(=O)[O]	
InChI=1S/C6H9NO2/c1-4-2-5(3-7-4)6(8)9/h2,4,7H,3H2,1H3,(H,8,9)	InChI=1S/C6H9NO2/c1-4-2-5(3-7-4)6(8)9/h2,4H,3,7H2,1H3/t4-/m1/s1
