23
gdb 87393	1.89171	1.57443	1.10112	1.5487	85.95	-0.2489	0.0732	0.3221	1246.1145	0.204772	-388.271188	-388.261454	-388.26051	-388.305265	37.767	
C	-0.5542506566	 1.3964417571	 0.2339548069	-0.408479
C	-0.1680830819	-0.0669052986	 0.2345738724	-0.052819
C	 1.2173166365	-0.5011171763	-0.1870929259	-0.364021
C	 0.7673615665	-0.7164155421	 1.2271187305	 0.283696
C	 1.3585041113	-0.2106421191	 2.5635583529	-0.042974
C	 1.0884982056	 1.1894938282	 3.0980273891	-0.409964
C	 0.6423697456	-1.4022750999	 3.2671664235	-0.278077
C	 0.4493055165	-2.074363776	 1.8833624314	 0.094452
O	-0.7626453556	-2.7242934544	 1.5863546797	-0.43009
H	 0.2901201659	 2.0391658014	 0.4965166431	 0.117559
H	-0.897780037	 1.6959358745	-0.7626552667	 0.116039
H	-1.3654194735	 1.6081238052	 0.9396485638	 0.110897
H	-0.9651236771	-0.731695689	-0.0954304143	 0.084877
H	 1.3260564222	-1.3685959794	-0.8317791989	 0.110111
H	 1.9455671904	 0.2852186152	-0.3697653594	 0.103224
H	 2.4416025639	-0.3857665708	 2.5569130619	 0.074946
H	 0.0173344018	 1.4127513013	 3.1193433764	 0.112819
H	 1.4676437262	 1.2797074801	 4.1223695548	 0.112996
H	 1.5822258073	 1.9615247825	 2.498555904	 0.114641
H	 1.18837494	-1.9544710587	 4.0356584844	 0.097943
H	-0.3240929695	-1.0880481975	 3.6795592914	 0.087719
H	 1.2301233504	-2.8140329154	 1.6767781921	 0.088599
H	-1.4780531089	-2.1088943782	 1.7808791467	 0.275908
69.7606	131.7864	186.1247	214.8844	236.1975	265.2599	278.0542	328.6922	341.0046	384.2419	446.7283	509.4705	538.4937	556.0128	662.4848	785.1244	798.3392	875.0954	889.402	906.3059	926.8139	953.9265	1017.3047	1047.8201	1066.357	1072.5048	1093.163	1118.8218	1134.2442	1153.4664	1171.9835	1190.6172	1200.6597	1237.1557	1264.1619	1288.3405	1309.5764	1329.7103	1379.5185	1405.5424	1410.9814	1426.4549	1436.7647	1482.3102	1485.3791	1488.0075	1497.9671	1504.1608	1506.2666	3020.7128	3027.0969	3030.1029	3036.1076	3054.4198	3083.3987	3090.1843	3102.4208	3104.1943	3107.1749	3108.464	3122.6386	3191.5796	3802.5692
CC1CC11C(C)CC1O	C[C@H]1C[C@]21[C@@H](C)C[C@H]2O	
InChI=1S/C8H14O/c1-5-3-7(9)8(5)4-6(8)2/h5-7,9H,3-4H2,1-2H3	InChI=1S/C8H14O/c1-5-3-7(9)8(5)4-6(8)2/h5-7,9H,3-4H2,1-2H3/t5-,6-,7+,8+/m0/s1
