21
gdb 64145	3.10718	1.12279	1.04918	2.3356	78.29	-0.2382	-0.0263	0.2119	1257.1106	0.180551	-424.256304	-424.246812	-424.245868	-424.291	35.472	
C	 0.0374190504	 1.5618166438	-0.3861230869	-0.411911
C	 0.0201874496	 0.1055708594	 0.0964328687	 0.393149
C	-1.3658783829	-0.28488449	 0.6057123944	-0.419647
C	 0.5723250302	-0.8652833051	-0.9692922263	-0.259397
C	 2.0828623419	-0.8776689841	-0.6968665314	-0.255563
C	 2.1268948194	-0.6976784075	 0.8255047467	 0.02641
O	 0.9419324577	-0.0115147996	 1.2106714846	-0.315289
C	 2.1851313042	-2.0215335681	 1.5873831475	 0.13691
O	 2.757424608	-3.0083530787	 1.203457924	-0.241796
H	 1.0187227323	 1.8361713422	-0.7850331771	 0.112584
H	-0.7081263118	 1.7219559076	-1.1718544417	 0.112445
H	-0.1879948366	 2.2340651368	 0.446471388	 0.123952
H	-2.1030392959	-0.2329024308	-0.2019533581	 0.114717
H	-1.3559436731	-1.3045608643	 1.0011557276	 0.115273
H	-1.6866124834	 0.3893470635	 1.4053213582	 0.122696
H	 0.1533704179	-1.8657298999	-0.8157276134	 0.108629
H	 0.320782825	-0.5507966534	-1.9847654985	 0.105348
H	 2.5758583682	-1.8054479791	-0.992849158	 0.131779
H	 2.5845755755	-0.045419625	-1.1970987077	 0.107066
H	 3.0009469458	-0.1110086812	 1.1478982461	 0.102747
H	 1.6365541278	-1.9911700663	 2.5552077033	 0.089899
40.1331	90.3261	139.1022	219.664	254.8665	269.5065	302.8045	321.473	369.9088	414.8792	454.3323	548.3594	626.8678	676.9575	754.8307	807.2514	860.7928	902.5892	919.4613	944.724	963.1585	1001.5944	1008.9235	1045.4043	1069.354	1099.9905	1144.9323	1167.1074	1219.5027	1250.146	1272.2425	1306.0804	1333.2633	1338.5617	1351.7263	1394.9589	1398.2459	1415.4608	1474.8995	1482.0409	1492.516	1498.2252	1500.9969	1509.1165	1831.8022	2892.4057	2987.776	3034.8215	3039.6711	3049.1939	3070.8839	3105.6633	3107.5353	3111.7406	3116.9401	3118.9583	3127.8906
CC1(C)CCC(O1)C=O	CC1(C)CC[C@@H](O1)C=O	
InChI=1S/C7H12O2/c1-7(2)4-3-6(5-8)9-7/h5-6H,3-4H2,1-2H3	InChI=1S/C7H12O2/c1-7(2)4-3-6(5-8)9-7/h5-6H,3-4H2,1-2H3/t6-/m1/s1
