19
gdb 75637	1.95976	1.79454	1.16275	3.2127	76.94	-0.2288	-0.0091	0.2197	1127.413	0.156532	-423.022371	-423.012812	-423.011868	-423.05627	35.452	
C	-0.0797608192	 1.6260020664	 0.0338862765	-0.419629
C	 0.0578129176	 0.1086025038	 0.0260315053	-0.156856
C	 1.0894267802	-0.5821025429	-0.9153876186	 0.345668
O	 1.1730213311	-0.6659372711	-2.1087563525	-0.330567
C	 1.7649798284	-1.2782562904	 0.2319264866	 0.238664
O	 2.2627470277	-2.560908755	 0.2409367244	-0.452586
C	 2.1630967767	-0.2459943326	 1.2844833991	-0.402492
C	 0.7233050874	-0.6466379395	 1.199384882	 0.273819
C	-0.0187492988	-1.3248710743	 2.3129207017	-0.49536
H	 0.8583964668	 2.1231971249	 0.2983208155	 0.117746
H	-0.3742259919	 1.9796102551	-0.9590703619	 0.13661
H	-0.8435886754	 1.9526052165	 0.7470799527	 0.120006
H	-0.9137653067	-0.3509556392	-0.202105511	 0.10188
H	 3.2050099406	-2.5321835553	 0.0419395293	 0.297246
H	 2.7158958071	-0.698848236	 2.1032229524	 0.122668
H	 2.5081039744	 0.7459957749	 1.0083833023	 0.119712
H	-0.3912019062	-0.5976583434	 3.0434526481	 0.12611
H	-0.8792055634	-1.8838305939	 1.929551923	 0.126108
H	 0.6312327136	-2.0283289582	 2.8424603952	 0.131254
91.0261	169.8342	179.8225	186.9785	196.4451	223.3408	230.3917	272.2383	375.8881	397.9759	483.0645	543.1192	607.8467	635.8315	685.601	744.4507	781.0103	870.3838	918.4219	970.7549	976.6218	1044.2809	1055.7606	1076.7942	1092.9662	1137.8336	1141.0172	1190.6813	1241.2875	1283.7721	1332.7731	1365.2739	1404.7566	1415.8496	1426.449	1485.6461	1492.5609	1495.2509	1498.6037	1506.2612	1875.9344	3021.3589	3028.0907	3036.9222	3088.625	3102.6114	3105.5995	3109.2814	3114.4208	3197.9292	3800.0423
CC1C(=O)C2(O)CC12C	C[C@H]1C(=O)[C@@]2(O)C[C@@]12C	
InChI=1S/C7H10O2/c1-4-5(8)7(9)3-6(4,7)2/h4,9H,3H2,1-2H3	InChI=1S/C7H10O2/c1-4-5(8)7(9)3-6(4,7)2/h4,9H,3H2,1-2H3/t4-,6-,7-/m0/s1
