15
gdb 7299	3.26057	1.56295	1.11939	3.6617	63.1	-0.2644	0.0129	0.2772	1012.46	0.11713	-399.802427	-399.793894	-399.79295	-399.835594	31.412	
N	-1.0491813821	 1.0806804849	-0.0572554024	-0.516168
C	-0.2842153335	-0.0302783919	 0.0233576097	 0.378407
O	 0.9372287406	-0.0142011094	 0.0559072325	-0.379908
C	-1.0163012326	-1.3885237234	 0.0410930573	 0.029743
O	-0.0541956289	-2.4013677342	 0.0602305845	-0.426983
C	-1.9469276516	-1.5562528311	 1.2747661839	-0.363948
C	-3.1660216874	-0.7597595186	 1.2210333131	 0.285158
C	-4.165725623	-0.0943887713	 1.138192395	-0.447202
H	-0.590770616	 1.9752736193	 0.0120503509	 0.26528
H	-2.0485227996	 1.0303953887	 0.0714432913	 0.270807
H	-1.6361115757	-1.4608524593	-0.8656428057	 0.103584
H	 0.7967085911	-1.9254400593	 0.0723747821	 0.296224
H	-2.2043034758	-2.6199996796	 1.3207101354	 0.156131
H	-1.3784560235	-1.3323870758	 2.1850875864	 0.143074
H	-5.0663089321	 0.467063421	 1.0911904059	 0.205801
56.7859	110.1126	152.3775	251.3297	333.6593	360.1482	375.3861	404.8702	451.3079	490.2766	550.8145	584.4608	629.5177	655.7955	660.489	734.9677	777.3567	965.9696	982.7683	1040.9811	1121.3254	1148.6873	1187.5604	1281.4407	1297.4621	1356.7146	1379.9079	1465.9972	1475.0573	1629.2952	1782.5492	2227.2827	2990.5618	3041.0443	3081.7348	3500.6984	3564.8004	3610.8003	3701.9755
NC(=O)C(O)CC#C	NC(=O)[C@@H](O)CC#C	
InChI=1S/C5H7NO2/c1-2-3-4(7)5(6)8/h1,4,7H,3H2,(H2,6,8)	InChI=1S/C5H7NO2/c1-2-3-4(7)5(6)8/h1,4,7H,3H2,(H2,6,8)/t4-/m0/s1
