13
gdb 131243	5.49667	1.34228	1.07883	4.7366	64.91	-0.2111	0.0317	0.2428	1007.8783	0.09239	-448.950325	-448.94346	-448.942516	-448.981423	26.052	
O	-0.1280117972	 1.3020314786	 0.0112014894	-0.421808
C	 0.066209658	-0.0313558087	 0.0027183622	 0.39605
C	 1.185029092	-0.8122619241	-0.008286447	-0.284163
N	 0.6991413046	-2.122288467	-0.0124895096	 0.058434
N	 1.1724828266	-3.3974681334	-0.022250606	-0.291787
C	 0.0272712537	-4.0841438932	-0.0191020747	 0.027397
N	-1.1367149165	-3.3666297443	-0.0081137161	-0.402218
C	-0.6520059899	-2.1364874115	-0.0043888311	 0.504509
N	-1.068190317	-0.8293341827	 0.0052174611	-0.463589
H	 0.7255934126	 1.7470460144	 0.007853282	 0.318529
H	 2.2297431001	-0.5622536863	-0.0132262831	 0.149007
H	 0.0349413586	-5.1639145077	-0.0250145136	 0.120899
H	-2.0149588158	-0.4937462041	 0.0127821165	 0.288739
143.915	210.4082	278.4373	318.7383	334.4253	361.8108	532.4267	589.5886	619.1982	655.2635	666.2255	757.8467	806.3333	862.9682	883.8116	983.5727	1024.1969	1148.406	1160.6145	1198.1402	1221.3775	1263.3131	1293.7546	1407.3553	1442.5784	1471.4819	1505.4873	1642.0826	1665.6664	3260.4338	3304.972	3697.7513	3842.0054
OC1=CN2N=CN=C2N1	Oc1cn2ncnc2[nH]1	
InChI=1S/C4H4N4O/c9-3-1-8-4(7-3)5-2-6-8/h1-2,9H,(H,5,6,7)	InChI=1S/C4H4N4O/c9-3-1-8-4(7-3)5-2-6-8/h1-2,9H,(H,5,6,7)
