19
gdb 54765	2.68305	1.50902	1.1454	2.0411	76.04	-0.2399	0.0279	0.2677	1110.6296	0.159729	-419.167709	-419.159068	-419.158124	-419.201045	33.054	
C	 0.6524033427	 1.4121896458	 0.4405793928	-0.521275
C	 0.1595177298	 0.0279882753	 0.1153619662	 0.309417
C	 0.2701529606	-0.7973955353	-1.1944685301	-0.209837
N	-0.5181767109	-1.7621544887	-0.2891743237	-0.180337
C	 0.4911772678	-1.3258758481	 0.7939771746	-0.21842
C	-1.2993797209	-0.4981420072	 0.1175116905	-0.0654
C	-2.1047768424	-0.5653043451	 1.4037715879	 0.329584
N	-2.6231017308	-1.7970648503	 1.65636498	-0.512678
O	-2.2932058288	 0.4153900499	 2.0999848828	-0.367692
H	 1.74651367	 1.4585195723	 0.4189309512	 0.115795
H	 0.2684210013	 2.1423003291	-0.2799016638	 0.121933
H	 0.3072323537	 1.7102927721	 1.4347232712	 0.149666
H	-0.2936722576	-0.4595566636	-2.0690818342	 0.101162
H	 1.2539660712	-1.1817270135	-1.4776498144	 0.101615
H	 1.4906318389	-1.7422209713	 0.6406628484	 0.09897
H	 0.1484145797	-1.4977189035	 1.8167243868	 0.115617
H	-1.9466681637	-0.1285660713	-0.6868388762	 0.097049
H	-2.3565299229	-2.5821997449	 1.0838916073	 0.274712
H	-3.1649753677	-1.9414479914	 2.4926207728	 0.260119
59.8563	130.2705	184.1157	215.8479	277.8055	299.0522	328.0368	410.0961	477.2488	569.0431	600.1114	634.8019	647.6449	718.3889	772.6147	820.7226	900.9381	912.6444	915.953	932.9346	1005.6329	1016.5768	1064.6594	1078.5068	1101.6463	1138.7803	1174.3699	1192.4002	1199.0158	1209.7666	1257.0571	1331.3562	1339.4739	1400.7644	1414.0538	1485.1064	1492.1321	1513.8771	1556.0513	1605.6033	1792.7952	3032.8071	3040.2538	3046.3977	3058.7289	3098.6227	3113.2022	3116.8065	3123.459	3581.9253	3722.8693
CC12CN(C1)C2C(N)=O	C[C@@]12CN(C1)[C@H]2C(=O)N	
InChI=1S/C6H10N2O/c1-6-2-8(3-6)4(6)5(7)9/h4H,2-3H2,1H3,(H2,7,9)	InChI=1S/C6H10N2O/c1-6-2-8(3-6)4(6)5(7)9/h4H,2-3H2,1H3,(H2,7,9)/t4-/m0/s1
