18
gdb 107508	2.52732	1.40508	1.00438	1.6483	75.97	-0.2456	0.0199	0.2655	1219.6051	0.14539	-439.031501	-439.022275	-439.021331	-439.065967	32.899	
C	 0.0881420264	 1.3253824843	-0.2432829899	-0.264492
O	-0.1494828105	-0.0548827038	 0.030178159	-0.269154
C	 0.5201001829	-0.5048587153	 1.1291199572	 0.276303
C	 1.992869497	-0.950829546	 1.1071522913	-0.354906
C	 0.9174313572	-1.8990525549	 1.52997027	 0.00206
O	 0.5748469687	-1.6363855954	 2.9167561933	-0.290188
C	 0.097360672	-0.3613937851	 2.5635877737	 0.420628
N	-0.5063704595	 0.4998362004	 3.2343481836	-0.353943
C	-0.7973547412	 0.2406712572	 4.6379665638	-0.340944
H	 1.1534414089	 1.5109248908	-0.435556537	 0.113283
H	-0.4894919324	 1.5688513486	-1.1367308076	 0.131167
H	-0.2432032448	 1.9518433536	 0.5922482175	 0.146698
H	 2.3643718571	-1.0980342086	 0.096902707	 0.130557
H	 2.7143212144	-0.5918402485	 1.8344825006	 0.128966
H	 0.6803714827	-2.8742028283	 1.129100858	 0.133851
H	-0.2684913541	 0.9762672457	 5.2540960578	 0.129695
H	-1.8683233101	 0.3884871895	 4.8116668587	 0.129963
H	-0.5178998647	-0.7647178145	 4.9726284428	 0.130455
74.1703	94.7906	124.6112	168.2902	185.8009	213.1919	283.6766	330.0932	430.5651	461.4288	524.933	643.388	735.9172	745.9146	866.8518	877.6944	927.3369	953.814	1019.1596	1023.3148	1042.9204	1062.4945	1071.437	1089.8032	1133.1023	1167.6577	1182.4975	1219.1753	1249.8227	1281.0144	1394.9649	1439.5151	1463.0947	1486.9112	1491.6657	1497.9897	1503.73	1508.381	1858.3736	3008.9778	3020.4705	3081.0268	3086.3528	3093.3896	3120.0272	3135.9858	3216.5924	3226.6548
COC12CC1OC2=NC	CO[C@]12C[C@H]1OC2=NC	
InChI=1S/C6H9NO2/c1-7-5-6(8-2)3-4(6)9-5/h4H,3H2,1-2H3	InChI=1S/C6H9NO2/c1-7-5-6(8-2)3-4(6)9-5/h4H,3H2,1-2H3/t4-,6-/m1/s1
