13
gdb 19227	3.33244	2.05081	1.50578	2.2015	59.02	-0.2571	-0.0457	0.2115	808.8994	0.094578	-398.579126	-398.572263	-398.571319	-398.610624	24.571	
O	-0.5205664106	 0.6969055349	-0.7233057936	-0.239719
C	 0.2065081807	 0.9414109098	 0.2054093039	 0.142573
C	 1.3478041015	 1.9248040854	 0.1537248404	-0.24823
C	 1.5728740278	 2.7851381825	-1.0822091593	-0.023587
C	 0.4769532297	 3.7355173761	-1.2830834113	-0.23692
N	 1.5197901238	 4.0904754533	-0.2634575586	-0.175773
C	 1.2058058063	 3.2938637513	 0.9001968914	 0.38726
O	 1.0275547879	 3.6201308698	 2.0274275539	-0.279106
H	 0.0692987401	 0.4590068007	 1.1970738603	 0.101882
H	 2.2583036586	 1.444585862	 0.5310067881	 0.140782
H	 2.3726426567	 2.6442868485	-1.797296698	 0.127383
H	 0.5213019654	 4.3950102274	-2.1426497209	 0.149657
H	-0.525473848	 3.4939003584	-0.9448486264	 0.153798
90.9334	132.7874	201.0561	227.7408	368.1354	492.2003	625.5563	660.3407	701.6007	748.3114	810.0169	834.8342	924.3571	963.6916	1013.4884	1027.6437	1048.2091	1076.7956	1116.3722	1146.0476	1162.3366	1239.3975	1333.6847	1359.2321	1420.5773	1510.191	1817.1944	1921.705	2904.7879	3062.0589	3136.6348	3208.2208	3228.7442
O=CC1C2CN2C1=O	O=C[C@H]1[C@H]2CN2C1=O	
InChI=1S/C5H5NO2/c7-2-3-4-1-6(4)5(3)8/h2-4H,1H2	InChI=1S/C5H5NO2/c7-2-3-4-1-6(4)5(3)8/h2-4H,1H2/t3-,4+,6?/m0/s1
