15
gdb 74054	3.00987	1.38738	0.95571	8.8982	73.43	-0.2257	-0.0516	0.1741	1147.5605	0.114018	-454.006028	-453.99781	-453.996866	-454.039203	30.426	
N	 0.0720159892	 1.3564921835	 0.1273652848	-0.556955
C	-0.0014352448	-0.0084546938	 0.0368989124	 0.360013
C	-1.1660801907	-0.6982518209	 0.0220759927	-0.29382
C	-1.2248993429	-2.1465029397	-0.0036719541	 0.281082
O	-2.2610089575	-2.7795762389	-0.0127641802	-0.327767
C	 0.1172741591	-2.9119314179	-0.0297373162	 0.308502
O	 0.1721604642	-4.1209042082	-0.0526541051	-0.341932
N	 1.2471565466	-2.1331334334	-0.0322944458	-0.348296
C	 1.3363851622	-0.6950011867	 0.0198010416	-0.230109
H	 0.914474353	 1.8171428058	-0.1775073453	 0.262753
H	-0.7735970364	 1.8811726144	-0.0313837832	 0.269673
H	-2.1196450251	-0.1779460734	 0.0344521005	 0.095869
H	 2.110939925	-2.656654347	-0.0448592223	 0.251425
H	 1.9056365019	-0.3192478489	-0.8461038921	 0.128093
H	 1.8937961861	-0.3746688151	 0.9134219622	 0.141469
69.7113	90.5944	169.2215	326.6512	350.5786	364.1156	417.1264	425.6987	450.7901	497.9415	544.0588	607.2677	614.2657	655.5768	796.9316	807.7539	893.1263	902.1698	1013.8032	1083.8895	1116.8814	1220.636	1253.8668	1282.6166	1337.4096	1376.4424	1431.8764	1482.7247	1520.8963	1650.6193	1690.1185	1769.6654	1808.3966	2970.2187	2994.2261	3168.7775	3589.1084	3603.1797	3699.1172
NC1=CC(=O)C(=O)NC1	NC1=CC(=O)C(=O)NC1	
InChI=1S/C5H6N2O2/c6-3-1-4(8)5(9)7-2-3/h1H,2,6H2,(H,7,9)	InChI=1S/C5H6N2O2/c6-3-1-4(8)5(9)7-2-3/h1H,2,6H2,(H,7,9)
