13
gdb 127986	7.04708	0.89436	0.79755	1.6785	66.23	-0.261	-0.1057	0.1553	1345.5145	0.08687	-489.858506	-489.850111	-489.849167	-489.892847	28.022	
C	-0.0164204845	 1.3735399177	 0.1692670555	-0.340011
N	 0.2631310829	-0.0522183577	 0.1024602209	-0.354681
C	 0.6380323433	-0.5695114259	-0.9612973537	 0.53948
O	 0.8591499187	 0.0038616516	-2.2022840237	-0.240179
N	 1.2770828526	-0.9905232668	-3.0970714618	-0.129977
C	 1.2905505223	-2.0664007487	-2.3971059384	 0.319693
O	 0.9224680793	-1.9143275485	-1.1032220524	-0.221414
C	 1.6645949917	-3.4282395942	-2.8682196225	 0.096033
O	 2.004472772	-3.6660842903	-3.9948611336	-0.211192
H	 0.6246266516	 1.8245388704	 0.9334496134	 0.140864
H	 0.1341211801	 1.9074133659	-0.7756200207	 0.134642
H	-1.0525620855	 1.5163434284	 0.4922318487	 0.140865
H	 1.5964352056	-4.1956759218	-2.0728415617	 0.125877
41.3967	76.41	147.4245	150.0542	243.6631	258.5195	284.4108	395.7919	588.9167	635.4236	694.0171	708.5067	773.2776	896.1307	929.4046	993.0911	1025.2724	1107.6402	1136.5653	1138.752	1202.3099	1316.6739	1433.3492	1450.2384	1492.87	1503.0994	1639.0887	1829.7804	1866.3897	2954.9165	3025.3906	3095.7525	3096.8941
CN=C1ON=C(O1)C=O	CN=c1onc(o1)C=O	
InChI=1S/C4H4N2O3/c1-5-4-8-3(2-7)6-9-4/h2H,1H3	InChI=1S/C4H4N2O3/c1-5-4-8-3(2-7)6-9-4/h2H,1H3
