16
gdb 90584	3.87195	1.28845	1.04042	4.0749	72.85	-0.221	-0.03	0.191	1124.6259	0.124816	-437.873853	-437.866198	-437.865254	-437.905977	29.166	
C	-0.3565140459	 1.491380414	-0.1006104642	-0.390338
C	 0.0644925793	 0.0671513136	 0.2060991793	 0.087244
O	 1.1412000024	-0.3863414164	-0.6975964548	-0.308329
C	 2.1418546646	-0.2761712642	 0.3579514569	-0.014004
C	 1.0229478379	-0.1894469194	 1.3554151659	 0.003333
C	 1.1547788474	-1.1917343326	 2.2382193262	-0.076507
N	 2.3932109915	-1.8240402064	 2.0618223218	-0.314133
C	 2.9937472833	-1.4787529826	 0.8448219297	 0.38255
O	 4.0168027181	-1.9393903194	 0.4083599926	-0.344564
H	 0.4902265446	 2.1789055532	-0.0239056905	 0.125326
H	-0.7661867741	 1.5524383015	-1.1132132297	 0.128899
H	-1.1299420675	 1.814950012	 0.604100856	 0.120898
H	-0.7918936529	-0.6143817387	 0.1521807871	 0.092639
H	 2.8101505263	 0.5730352943	 0.1753879592	 0.109825
H	 0.4218223124	-1.630074174	 2.9030296835	 0.132471
H	 2.7794062325	-2.5366428149	 2.6604273511	 0.264687
109.8403	169.6777	188.7632	242.1231	319.6854	355.7422	450.0018	495.8755	525.9746	642.4949	662.3417	721.5615	783.05	837.762	862.7841	891.2438	898.1369	986.5332	1010.8329	1043.8999	1085.4274	1126.8588	1142.7295	1178.4949	1241.1194	1264.4083	1310.0311	1336.6241	1379.25	1392.5413	1409.7202	1486.1892	1489.6118	1672.4282	1846.4246	3038.8192	3043.1026	3046.7555	3110.7039	3123.8502	3216.132	3648.2577
CC1OC2C1=CNC2=O	C[C@H]1O[C@H]2[C]1[CH]NC2=O	
InChI=1S/C6H7NO2/c1-3-4-2-7-6(8)5(4)9-3/h2-3,5H,1H3,(H,7,8)	InChI=1S/C6H7NO2/c1-3-4-2-7-6(8)5(4)9-3/h2-3,5H,1H3,(H,7,8)/t3-,5+/m1/s1
