13
gdb 12611	3.28128	2.29282	1.3731	1.1778	55.38	-0.2779	-0.0213	0.2566	826.9542	0.09619	-435.82568	-435.818371	-435.817427	-435.858991	24.863	
C	-0.0423416016	 1.4740271787	 0.0086815135	-0.346225
N	-0.0132843054	 0.0225583465	 0.0006200841	-0.190216
C	-1.1310114104	-0.7839852867	 0.0033110733	 0.39144
O	-2.2817765632	-0.4281799431	 0.0125109704	-0.350988
C	-0.572271588	-2.2011937338	-0.0079875672	-0.213825
O	 0.8492748144	-2.0418173584	-0.0161284635	-0.236851
C	 1.1700746271	-0.7212193093	-0.0110047372	 0.515291
O	 2.2868001795	-0.2961531196	-0.0159034247	-0.371649
H	 0.9900864827	 1.823222044	-0.0003876695	 0.172025
H	-0.5725519967	 1.8452786232	-0.8717120885	 0.154789
H	-0.5535500199	 1.836249922	 0.9039917204	 0.154682
H	-0.880468689	-2.756730209	 0.8822793488	 0.160762
H	-0.8917677895	-2.7469636946	-0.9003095199	 0.160765
15.7029	133.7385	204.3341	209.1225	265.5083	386.2947	585.2332	594.4538	620.8806	695.0229	762.4501	770.5962	971.1298	1021.9736	1079.5867	1106.1159	1127.0977	1161.7886	1202.4443	1298.2567	1354.1756	1417.9625	1469.4393	1487.6104	1488.5164	1511.2503	1841.7072	1912.4536	3057.8956	3064.5552	3113.0492	3125.3138	3166.9281
CN1C(=O)COC1=O	CN1C(=O)COC1=O	
InChI=1S/C4H5NO3/c1-5-3(6)2-8-4(5)7/h2H2,1H3	InChI=1S/C4H5NO3/c1-5-3(6)2-8-4(5)7/h2H2,1H3
