14
gdb 133322	2.35959	1.86599	1.04249	0.6513	71.85	-0.1964	-0.0315	0.165	1036.8176	0.102652	-474.166894	-474.159346	-474.158402	-474.198666	29.336	
N	 0.0525335942	 1.3644921094	-0.0579152934	-0.592396
C	-0.0084639838	 0.0105885022	 0.0069100636	 0.227364
C	-1.1472973627	-0.7354154567	 0.0734801604	 0.163102
F	-2.3437302424	-0.1233200091	 0.0318367487	-0.088146
C	-1.1032899793	-2.1464184322	 0.1872952857	-0.080893
N	 0.0099641184	-2.8196321356	 0.2297972145	-0.222955
N	 1.1399903707	-2.0759579813	 0.151795683	-0.315133
C	 1.270132619	-0.7023775216	 0.02920456	 0.348719
N	 2.363450543	-0.0278619953	-0.0678533668	-0.585307
H	 0.9644468924	 1.7310131638	-0.2932516368	 0.28058
H	-0.7670947747	 1.8752720773	-0.3371554129	 0.264303
H	-2.024523554	-2.7147052048	 0.2456494745	 0.133618
H	 1.9833602543	-2.6288138244	 0.1765791957	 0.264027
H	 3.1932144851	-0.6187352917	-0.0522192162	 0.203114
134.7035	195.42	272.9125	286.3781	337.8199	378.6401	485.2238	520.9882	531.6758	541.7325	573.0893	590.0931	650.1642	699.2839	749.9659	762.8622	883.8377	893.6671	975.6509	1084.7039	1156.3634	1237.0414	1288.9929	1326.4544	1403.8786	1430.9267	1472.3012	1582.0271	1624.1562	1681.6137	1706.5908	3201.8984	3491.0514	3566.8714	3623.7794	3716.2061
NC1=C(F)C=NNC1=N	NC1=C(NN=C[C@H]1F)[NH]	
InChI=1S/C4H5FN4/c5-2-1-8-9-4(7)3(2)6/h1H,(H2,6,8)(H2,7,9)	InChI=1S/C4H6FN4/c5-2-1-8-9-4(7)3(2)6/h1-2,7,9H,6H2/t2-/m1/s1
