19
gdb 114790	3.4393	1.34473	1.274	2.885	73.57	-0.2407	0.0807	0.3214	1057.8993	0.161513	-422.990993	-422.983712	-422.982767	-423.022765	29.487	
O	 0.0225138987	 1.4943400296	 0.1533097131	-0.424024
C	 0.0962130914	 0.0832946794	 0.2038085721	-0.065826
C	-1.2866838947	-0.542119184	 0.026835097	 0.076005
O	-1.8884082525	-0.0422082294	-1.1880735564	-0.295669
C	-2.0680539355	-1.1423938638	-2.0733064793	 0.089287
C	-0.7042873016	-1.7501128683	-2.529991852	-0.252718
C	-0.8283847843	-2.7387150358	-1.3671557131	-0.080544
C	-2.3058894943	-2.4025821062	-1.2014755234	-0.09632
C	-1.3467321068	-2.0559735027	-0.1058689613	-0.076592
H	-0.4970917178	 1.6971645099	-0.6343784284	 0.288361
H	 0.790212501	-0.3142851648	-0.5520395469	 0.087834
H	 0.494584185	-0.1832041594	 1.1896896754	 0.102052
H	-1.9187161905	-0.2078757419	 0.8613022651	 0.084434
H	-2.787096217	-0.8560289301	-2.8393145404	 0.085165
H	-0.8042784747	-2.2671770921	-3.4891993885	 0.103178
H	 0.1484021103	-1.0662585561	-2.574144731	 0.098756
H	-0.354737905	-3.7114819837	-1.3048830992	 0.088699
H	-3.1865378114	-3.0240155487	-1.1180301904	 0.09285
H	-1.3441431603	-2.6559077717	 0.7967375975	 0.095073
93.3676	164.2345	204.4708	343.4191	420.793	463.0157	477.5605	517.2614	662.8439	703.8097	752.6983	787.884	820.6526	838.1619	873.0522	905.4042	959.4353	969.0725	995.3573	1007.0609	1026.2906	1054.3812	1065.3462	1079.711	1109.2398	1113.7605	1127.2376	1154.5987	1203.671	1224.7786	1230.6967	1282.8913	1292.8575	1326.1414	1339.7655	1363.4184	1392.3429	1403.3086	1440.3618	1490.0655	1509.8502	2989.8911	3012.0927	3047.558	3064.6395	3099.2557	3130.0933	3177.3606	3187.3604	3212.8369	3784.5618
OCC1OC2CC3C2C13	OC[C@H]1O[C@H]2C[C@@H]3[C@H]2[C@H]13	
InChI=1S/C7H10O2/c8-2-5-7-3-1-4(9-5)6(3)7/h3-8H,1-2H2	InChI=1S/C7H10O2/c8-2-5-7-3-1-4(9-5)6(3)7/h3-8H,1-2H2/t3-,4+,5-,6-,7+/m1/s1
