19
gdb 39879	3.91489	1.49481	1.38434	1.6467	78.3	-0.2374	0.0917	0.3292	986.583	0.161599	-385.827822	-385.821266	-385.820322	-385.858455	28.036	
C	 0.0067775063	 1.56816866	 0.0610415764	-0.349347
C	 1.298578735	 0.7689242051	-0.000292709	-0.358591
C	-0.0282368203	 0.0754227092	 0.0078925982	 0.436825
C	-0.5321422646	-0.9550816124	 1.0279108919	-0.19311
C	-2.0591019297	-0.8723090918	 0.8026521554	-0.210547
C	-1.9679794074	-1.3984936835	-0.6450003417	 0.065326
O	-1.4544201472	-2.7472910384	-0.4189212968	-0.297977
C	-0.2363727102	-2.0753725972	-0.090992948	 0.120314
C	-0.5173747668	-0.8973156877	-1.0508251503	-0.173912
H	-0.2397895131	 2.0583011406	 0.9979331538	 0.112237
H	-0.2864705299	 2.1271038145	-0.822056893	 0.111976
H	 1.8680262615	 0.7918980999	-0.9243284653	 0.112702
H	 1.9096426569	 0.7269181548	 0.8959224277	 0.113238
H	-0.1423119908	-1.0087122318	 2.0428573458	 0.067087
H	-2.6497564969	-1.5538336263	 1.4179306798	 0.103897
H	-2.4401515866	 0.1475696964	 0.8959990902	 0.098899
H	-2.8329391256	-1.3620183962	-1.3052973124	 0.079479
H	 0.6579557279	-2.6931780997	-0.0415500338	 0.08692
H	-0.2396982386	-0.8804633156	-2.1032666188	 0.074585
158.9871	236.1	253.5894	434.9752	471.9002	539.2286	574.861	719.2698	735.9866	774.2553	802.6362	834.9562	853.257	895.9172	911.5014	917.4784	935.2076	956.5092	966.0447	974.6837	1000.1332	1024.0709	1035.0801	1051.6158	1073.466	1079.0149	1147.4688	1152.44	1162.1427	1184.6546	1203.1212	1219.5645	1225.5311	1244.6989	1282.043	1303.2692	1331.2746	1415.5431	1463.5642	1482.7932	1511.1364	3069.5907	3119.4444	3123.327	3126.2059	3129.9465	3132.6128	3137.3676	3147.9437	3196.4419	3210.9142
C1CC11C2CC3OC2C13	C1CC21[C@H]1C[C@@H]3O[C@H]1[C@H]23	
InChI=1S/C8H10O/c1-2-8(1)4-3-5-6(8)7(4)9-5/h4-7H,1-3H2	InChI=1S/C8H10O/c1-2-8(1)4-3-5-6(8)7(4)9-5/h4-7H,1-3H2/t4-,5-,6+,7+/m0/s1
