18
gdb 66841	2.67994	1.94989	1.4585	0.4739	74.67	-0.2113	0.0703	0.2816	943.1773	0.148013	-401.850038	-401.842679	-401.841734	-401.881331	29.891	
C	-0.0755887778	 1.4185676372	-0.01153084	-0.51911
C	-0.0016124226	-0.073328222	 0.084542278	 0.286101
C	 0.2190903115	-1.0151296419	-1.1352568107	-0.178672
N	 0.9051618728	-2.2046441033	-0.5515669177	-0.153598
C	 1.8874348595	-1.6120578435	 0.4347585382	-0.183144
C	 0.6854959468	-0.965982538	 1.1500428914	-0.121993
C	-0.176873725	-2.128584731	 0.5505097218	-0.104594
C	-1.018267761	-1.1273483802	-0.29102325	 0.328631
O	-2.3554465385	-0.9877851331	-0.5525115366	-0.458814
H	 0.9240958506	 1.8662008683	-0.0612392147	 0.119081
H	-0.6218209127	 1.7224159239	-0.9107561141	 0.127067
H	-0.5959307376	 1.8548041288	 0.848497947	 0.124075
H	 0.3830295716	-0.6576153608	-2.1445004361	 0.090337
H	 2.3487750769	-2.4184498884	 1.012487201	 0.10569
H	 2.6614391277	-0.9743216199	-0.0032494951	 0.099945
H	 0.6788526594	-0.6509429742	 2.193650937	 0.067999
H	-0.4770862442	-3.0443928776	 1.0569553726	 0.07893
H	-2.6101206875	-1.6467643243	-1.2091018918	 0.29207
176.5563	185.8896	248.1534	280.684	301.9964	360.793	477.8226	581.0369	617.4073	634.4147	743.2717	764.029	807.237	835.2384	848.8944	886.9301	894.2364	932.3946	951.6965	991.4285	1016.2754	1052.8514	1069.4816	1116.0427	1125.8326	1149.964	1187.001	1194.5608	1199.2969	1207.2838	1229.2286	1278.3703	1295.6678	1357.2093	1418.7461	1484.2215	1490.2576	1501.2049	1512.623	3021.9347	3046.6585	3080.2575	3095.1645	3105.0095	3112.7964	3130.5724	3189.2072	3782.2002
CC12C3N4CC1C4C23O	C[C@@]12[C@H]3N4C[C@@H]1[C@H]4[C@@]23O	
InChI=1S/C7H9NO/c1-6-3-2-8-4(3)7(6,9)5(6)8/h3-5,9H,2H2,1H3	InChI=1S/C7H9NO/c1-6-3-2-8-4(3)7(6,9)5(6)8/h3-5,9H,2H2,1H3/t3-,4+,5-,6+,7+/m1/s1
