19
gdb 101062	2.25465	1.33012	0.93539	1.2514	77.92	-0.2617	0.0163	0.278	1291.3292	0.156015	-422.970809	-422.961004	-422.960059	-423.005401	36.523	
C	 0.1379226122	 1.5538485112	 0.1567566686	-0.386187
C	 0.1660815049	 0.0256583026	 0.0929861303	-0.19131
C	 0.5900990975	-0.4965882854	-1.2875969955	 0.016747
O	 1.8703464023	-0.019484588	-1.658372948	-0.432367
C	 0.5769241024	-2.0335831276	-1.3436937976	 0.201425
C	 1.5195450062	-2.7362965512	-2.2350196461	-0.220211
O	 1.7951862754	-2.6222293918	-0.8338266624	-0.28744
C	-0.6524463117	-2.689152984	-0.9711432938	 0.268897
C	-1.6991495506	-3.2058031433	-0.6836072537	-0.388248
H	 1.1116702835	 1.9705719403	-0.1128205314	 0.13022
H	-0.6034614016	 1.9636191297	-0.5385438159	 0.113205
H	-0.1205202601	 1.9000816028	 1.1617294853	 0.110937
H	 0.8652360969	-0.3731876054	 0.8403775452	 0.100727
H	-0.8185153596	-0.3856475577	 0.3397187941	 0.112965
H	-0.1041575778	-0.1215693029	-2.0498452666	 0.099766
H	 2.5001950407	-0.4906792473	-1.0955532256	 0.289542
H	 1.2719627373	-3.7394649617	-2.5742527499	 0.126354
H	 2.157942947	-2.1417934525	-2.8825939203	 0.135102
H	-2.6183142249	-3.6706783579	-0.4237754467	 0.199877
74.3807	96.3684	137.3412	185.1275	215.7206	240.522	283.941	321.8135	388.2199	429.2825	495.7744	514.4506	544.9235	578.008	625.6052	670.1421	731.2957	784.3396	863.3677	877.4658	930.344	971.7925	996.8836	1074.7896	1113.8491	1126.8522	1139.9382	1175.5241	1209.6128	1262.9567	1297.3037	1342.1613	1357.7306	1384.6692	1406.0878	1431.5874	1484.6193	1495.7559	1501.8421	1509.628	2237.0954	3021.7079	3036.8676	3043.3721	3076.9276	3102.5954	3104.7925	3124.1834	3205.8405	3500.1834	3757.1777
CCC(O)C1(CO1)C#C	CC[C@@H](O)[C@]1(CO1)C#C	
InChI=1S/C7H10O2/c1-3-6(8)7(4-2)5-9-7/h2,6,8H,3,5H2,1H3	InChI=1S/C7H10O2/c1-3-6(8)7(4-2)5-9-7/h2,6,8H,3,5H2,1H3/t6-,7-/m1/s1
