16
gdb 133069	3.50943	1.1135	0.8996	2.4486	73.23	-0.2662	-0.0368	0.2294	1258.2548	0.125263	-442.104298	-442.096486	-442.095542	-442.137516	28.64	
C	 0.2170065048	 1.5288175315	 0.1487797818	-0.373081
C	-0.0587626037	 0.030552796	-0.0616523691	-0.270172
C	 0.6789048675	-0.5179438084	-1.254985188	 0.350026
N	 0.2976556229	-0.0643134806	-2.4643033008	-0.299805
C	 0.9569886109	-0.5375333181	-3.5130791565	 0.066154
N	 1.9641275332	-1.4198042115	-3.5070569111	-0.306635
C	 2.3147753073	-1.8445454653	-2.3147569598	 0.366156
F	 3.3080705627	-2.7192974376	-2.2648590046	-0.059181
C	 1.715447565	-1.4373382982	-1.129116594	-0.339822
H	 1.2754171108	 1.7090474855	 0.362004423	 0.120073
H	-0.0507339692	 2.0918017627	-0.7486934696	 0.144347
H	-0.3690973332	 1.9125055125	 0.9884860964	 0.119307
H	 0.2142763515	-0.5368745753	 0.8337029347	 0.105158
H	-1.1313058036	-0.1165592984	-0.2308799594	 0.128242
H	 0.6489685896	-0.174088188	-4.4903135519	 0.128299
H	 2.0441850135	-1.8220941368	-0.1723078611	 0.120935
43.2806	134.7607	215.4956	220.9985	294.2627	325.8816	466.8088	480.0368	555.0902	569.2736	699.5602	789.3822	803.6988	811.6446	890.0444	938.7922	998.9752	1000.4049	1010.2784	1077.4414	1088.3262	1170.7549	1251.8141	1290.8321	1309.1779	1341.3283	1355.4794	1401.2498	1426.1295	1479.7198	1496.2655	1500.3864	1510.6668	1603.2349	1630.0916	3042.3575	3044.3723	3085.8196	3114.2361	3131.1811	3169.4761	3214.983
CCC1=NC=NC(F)=C1	CCc1ncnc(F)c1	
InChI=1S/C6H7FN2/c1-2-5-3-6(7)9-4-8-5/h3-4H,2H2,1H3	InChI=1S/C6H7FN2/c1-2-5-3-6(7)9-4-8-5/h3-4H,2H2,1H3
