17
gdb 31322	2.31739	1.3789	0.91863	4.4651	80.18	-0.2418	-0.0539	0.188	1260.9349	0.135738	-421.874989	-421.866468	-421.865523	-421.909168	30.66	
C	-0.3072887414	 1.5710994579	-0.0679920726	-0.368851
C	 0.0876492296	 0.0885001994	 0.0552220654	-0.311257
C	 0.7674015023	-0.4370888594	-1.1756140257	 0.192052
C	 2.0990264926	-0.7515722115	-1.3478598238	 0.173153
O	 2.3192821821	-1.17845328	-2.6304490752	-0.155989
C	 1.1360218288	-1.1331670749	-3.2661043551	 0.005202
C	 0.1484403209	-0.6894283348	-2.438365466	-0.267068
C	 3.2305566727	-0.7061277098	-0.4402315075	 0.065833
O	 4.3700646119	-1.0098508578	-0.7196505071	-0.284354
H	 0.5761241052	 2.1989281689	-0.2172811962	 0.12808
H	-0.9781500118	 1.7324420049	-0.9172816875	 0.123777
H	-0.8194349224	 1.9094791319	 0.8375347829	 0.120673
H	 0.7327966534	-0.0458627761	 0.9283302024	 0.116087
H	-0.8125345929	-0.5090058415	 0.2439907573	 0.118132
H	 1.1447604902	-1.4470980208	-4.2979951869	 0.149643
H	-0.8931687199	-0.5630874754	-2.6909360864	 0.121228
H	 2.9571701889	-0.3534252311	 0.5775752519	 0.073661
34.6541	139.9313	153.4022	181.6874	227.3708	268.6992	321.7963	396.6316	539.4047	608.3396	637.1823	716.7359	788.997	794.3156	797.6965	851.6198	908.2073	963.7722	1013.8829	1036.1456	1070.9879	1089.5474	1131.9648	1202.99	1265.929	1280.6864	1311.7982	1352.0809	1407.7256	1410.8396	1454.4814	1486.8421	1496.6604	1505.5679	1523.3993	1618.5331	1780.4233	2894.1754	3035.218	3040.7598	3082.3116	3114.9656	3117.6295	3250.0805	3276.2344
CCC1=C(OC=C1)C=O	CCc1c(occ1)C=O	
InChI=1S/C7H8O2/c1-2-6-3-4-9-7(6)5-8/h3-5H,2H2,1H3	InChI=1S/C7H8O2/c1-2-6-3-4-9-7(6)5-8/h3-5H,2H2,1H3
