20
gdb 79143	2.53519	1.72916	1.25533	2.5171	77.08	-0.2324	0.0704	0.3028	1054.9427	0.172323	-403.107303	-403.099461	-403.098517	-403.139216	31.539	
C	-0.1672794737	 1.5721307047	-0.0103088545	-0.418584
C	 0.0244656603	 0.0552321945	 0.0106411623	 0.03145
C	 0.8901241071	-0.5122802487	-1.1479380815	-0.17977
N	 1.6053945248	-1.6925656006	-0.6105368397	-0.106599
C	 2.5632791925	-1.4433709674	 0.4753494566	-0.049667
C	 1.1856580973	-1.9423247831	 0.7635300726	-0.061062
C	 0.7637867791	-0.5199432289	 1.2279419995	-0.109273
C	 2.2856851348	-0.1378908893	 1.2246868547	 0.113237
O	 2.8962301472	-0.2331059505	 2.4966754621	-0.4443
H	 0.7881568206	 2.1045130222	 0.0498437559	 0.116231
H	-0.6632980419	 1.8914418065	-0.9329757683	 0.119253
H	-0.7888852005	 1.9054077294	 0.8275885246	 0.113642
H	-0.9657466306	-0.418126741	-0.0340455882	 0.074603
H	 0.2803205799	-0.8338561429	-1.9973637679	 0.105976
H	 1.6101394322	 0.2245282888	-1.5215785983	 0.103134
H	 3.5176292608	-1.9578377941	 0.4511990028	 0.095262
H	 0.8128928952	-2.9119625556	 1.0698898817	 0.090478
H	 0.2676550125	-0.3988521022	 2.1918960489	 0.06448
H	 2.5644057874	 0.8032167243	 0.7290736444	 0.059677
H	 2.616240075	 0.5263278438	 3.0175301421	 0.281832
153.0592	167.3952	220.9311	268.3904	294.5319	329.051	375.0939	479.2096	497.5018	592.0137	695.8966	780.8015	828.0487	859.8677	869.8263	893.0704	938.4342	943.0269	953.044	972.7875	981.8683	1027.7396	1052.2724	1069.5518	1108.6028	1132.9372	1161.644	1187.4699	1191.7583	1212.1757	1219.8202	1241.1934	1265.9617	1312.5306	1320.9068	1335.3328	1353.5395	1385.8997	1409.6232	1425.6193	1497.6915	1498.3266	1508.3559	2987.9703	3008.1913	3029.2428	3041.1823	3084.1075	3095.2226	3097.3752	3107.6386	3172.3854	3189.6867	3815.0517
CC1CN2C3C2C1C3O	C[C@H]1CN2[C@@H]3[C@H]2[C@H]1[C@H]3O	
InChI=1S/C7H11NO/c1-3-2-8-5-4(3)7(9)6(5)8/h3-7,9H,2H2,1H3	InChI=1S/C7H11NO/c1-3-2-8-5-4(3)7(9)6(5)8/h3-7,9H,2H2,1H3/t3-,4-,5+,6+,7+,8?/m0/s1
