14
gdb 25132	3.71475	1.20588	0.91036	3.0965	85.48	-0.2175	-0.0676	0.1499	1192.2889	0.101194	-399.549529	-399.542002	-399.541058	-399.581615	28.838	
N	-0.0105957975	 1.3409112138	 0.0108134589	-0.538171
C	-0.0137751702	 0.0706861266	 0.0032978226	 0.397461
O	 1.1963638897	-0.6374569698	-0.0070604475	-0.237147
C	 1.2157433788	-1.9867234494	-0.0150154309	 0.081598
C	 0.1121461489	-2.7481310403	-0.0138548081	-0.260774
C	-1.1803644247	-2.0878274393	-0.0034513255	 0.146816
C	-1.2196555696	-0.7287202912	 0.0047102782	-0.253479
C	-2.3666835169	-2.8716028039	-0.0020495583	 0.220462
C	-3.3546277501	-3.5598943711	-0.0010729463	-0.383365
H	 0.9439928662	 1.7008718576	 0.0080953359	 0.223325
H	 2.2293218494	-2.3688083834	-0.0223870534	 0.141932
H	 0.1865013061	-3.8259118027	-0.0205088898	 0.122376
H	-2.1522799943	-0.1813195284	 0.0126459454	 0.134949
H	-4.2323281757	-4.1577407085	-0.0000814412	 0.204017
128.4626	138.6126	144.7841	331.9415	410.1146	433.4996	435.5076	548.4483	572.8779	615.1093	647.1765	669.1931	709.7153	733.3567	793.0839	835.8442	842.9351	911.786	937.3276	986.2397	1064.6854	1109.8565	1171.892	1255.4866	1300.1152	1340.6824	1446.398	1588.4694	1672.4597	1727.8459	2227.5928	3213.2228	3234.4091	3244.4517	3492.5524	3502.7106
N=C1OC=CC(=C1)C#C	[NH]C1=C[C@H](C=CO1)C#C	
InChI=1S/C7H5NO/c1-2-6-3-4-9-7(8)5-6/h1,3-5,8H	InChI=1S/C7H6NO/c1-2-6-3-4-9-7(8)5-6/h1,3-6,8H/t6-/m0/s1
