19
gdb 73489	2.5003	2.17666	1.57509	1.9715	73.15	-0.2384	0.0633	0.3017	902.5436	0.162179	-423.011878	-423.005083	-423.004139	-423.042502	28.933	
O	-0.0252547249	 1.3578967355	 0.0029608496	-0.495767
C	 0.0392853487	-0.0414241249	-0.0405283584	 0.41472
C	 0.7002489933	-0.6442447113	-1.2859700975	-0.164204
O	 0.0372093277	-1.9008910909	-1.4591678391	-0.26911
C	-0.6820313121	-2.1311851381	-0.2406695891	 0.1025
C	 0.3419001367	-2.2412501074	 0.9284943872	-0.239964
C	 0.3125135578	-0.7581813541	 1.3437063996	-0.108806
C	-1.2043624864	-0.5687307265	 1.6290760639	-0.248033
C	-1.3313479411	-0.76699635	 0.1009880031	-0.080148
H	 0.8348003893	 1.691594546	 0.2786289882	 0.282765
H	 0.523042428	-0.0091938024	-2.1613978544	 0.108508
H	 1.7853283574	-0.7879967835	-1.1733095588	 0.085896
H	-1.3381936975	-2.9862194607	-0.3977308325	 0.077994
H	 0.0112518802	-2.8931978926	 1.7426201416	 0.097483
H	 1.3034559739	-2.6067140493	 0.559827315	 0.104646
H	 1.0831921697	-0.3947089424	 2.0264820111	 0.055299
H	-1.6895359081	-1.2866149893	 2.2963479992	 0.087991
H	-1.4538801702	 0.4526603198	 1.9174022336	 0.114169
H	-2.2006129126	-0.4640806781	-0.4811086324	 0.074061
228.1131	247.4689	284.5772	359.0495	405.3103	430.418	482.0786	570.3908	608.8424	683.4094	741.9889	824.5601	845.2128	877.3323	888.3801	940.4663	944.5483	960.8164	985.5614	1008.4052	1043.7935	1048.3856	1062.3015	1102.7608	1128.1628	1142.5342	1167.0152	1190.8155	1210.3052	1227.7068	1250.3581	1257.3364	1278.781	1288.3209	1307.3579	1335.4594	1348.1813	1398.8586	1487.125	1506.9948	1523.9706	2988.8986	3053.1642	3056.7984	3062.1191	3093.156	3105.9231	3123.9886	3133.5001	3138.1636	3809.1559
OC12COC3CC1CC23	O[C@@]12CO[C@H]3C[C@@H]1C[C@@H]23	
InChI=1S/C7H10O2/c8-7-3-9-6-2-4(7)1-5(6)7/h4-6,8H,1-3H2	InChI=1S/C7H10O2/c8-7-3-9-6-2-4(7)1-5(6)7/h4-6,8H,1-3H2/t4-,5+,6-,7-/m0/s1
