21
gdb 104116	2.43013	1.28789	1.1274	4.2896	78.28	-0.2602	0.0183	0.2785	1223.1537	0.181946	-424.294927	-424.285623	-424.284679	-424.328921	35.17	
C	-0.3221590332	 1.4083447202	-0.1574924346	-0.395266
C	-0.0176149797	-0.0909640053	-0.22222708	-0.201317
C	 1.0020820581	-0.5053615717	-1.2997770099	 0.377123
C	 2.3825464834	 0.1033753065	-1.078210191	-0.434782
C	 1.0470505192	-2.0461547228	-1.4669800843	-0.268985
C	 0.0133368507	-2.3191696196	-2.5612522679	-0.362963
C	-0.0668406412	-1.0006648394	-3.323372815	 0.419197
O	-0.5595125915	-0.7910975407	-4.3937994632	-0.338461
O	 0.5240124844	-0.0223060246	-2.5888902724	-0.249547
H	 0.5491273472	 1.9899142805	 0.157966618	 0.118755
H	-0.6419710584	 1.7806300914	-1.1339961327	 0.142889
H	-1.1231676839	 1.603219784	 0.5615026647	 0.114849
H	 0.3575271091	-0.4440097263	 0.7466039583	 0.100221
H	-0.9502053381	-0.6389310966	-0.4074548538	 0.097952
H	 2.8064848597	-0.2590538459	-0.1360291459	 0.119291
H	 3.0556430341	-0.1809188758	-1.8916828077	 0.125269
H	 2.3388683244	 1.1940546149	-1.040243125	 0.134307
H	 2.0433641781	-2.3535895342	-1.7981608714	 0.110903
H	 0.8365514143	-2.559268589	-0.5260029665	 0.111304
H	 0.2711173528	-3.1303034603	-3.2436145482	 0.139139
H	-0.9817350695	-2.5390940453	-2.1598448713	 0.140123
83.4807	113.5084	125.8707	211.9842	228.4429	250.3041	324.182	342.6067	392.8062	480.946	517.1099	546.7036	602.4179	663.1413	755.9166	792.4997	806.7389	887.411	915.12	956.1087	1007.949	1009.8674	1023.0732	1028.292	1076.3835	1122.1059	1150.2438	1179.9075	1231.0566	1245.8263	1279.9134	1305.3276	1313.8189	1352.3361	1378.2402	1413.5429	1414.8667	1465.0993	1476.6158	1488.4783	1494.4993	1498.1176	1508.8572	1512.2333	1878.4687	3022.0621	3044.1147	3047.5905	3056.1743	3058.5126	3062.2221	3108.2926	3110.1119	3115.5071	3127.4672	3127.9181	3132.5028
CCC1(C)CCC(=O)O1	CC[C@@]1(C)CCC(=O)O1	
InChI=1S/C7H12O2/c1-3-7(2)5-4-6(8)9-7/h3-5H2,1-2H3	InChI=1S/C7H12O2/c1-3-7(2)5-4-6(8)9-7/h3-5H2,1-2H3/t7-/m0/s1
