15
gdb 127270	4.01735	1.09743	0.8667	1.0796	71.33	-0.2304	-0.0062	0.2242	1264.254	0.113986	-450.154587	-450.146445	-450.1455	-450.188059	28.693	
C	-0.0067468657	 1.4861280489	 0.1459062115	-0.33165
N	-0.0034159381	 0.0469673866	-0.0245687307	 0.081422
C	 0.0242220379	-0.6707025827	-1.1775255902	-0.181182
C	 0.012076481	-1.9743695137	-0.734553028	 0.401932
N	 0.0282008787	-3.1730725114	-1.4393339758	-0.387233
C	 0.0615049619	-3.2774546814	-2.7993060604	 0.142832
O	 0.0802802035	-2.336746222	-3.5642344219	-0.31321
N	-0.0211174425	-1.9901185525	 0.6217559483	-0.280389
N	-0.0303515368	-0.7551027502	 1.0500441082	-0.143133
H	 0.8947358585	 1.9259840095	-0.2889704092	 0.151889
H	-0.8880096916	 1.9266782231	-0.3280122061	 0.151911
H	-0.0301757634	 1.682840627	 1.2173844339	 0.17176
H	 0.0487625365	-0.2419159543	-2.1613092566	 0.17444
H	 0.0135910686	-4.0100265105	-0.875359482	 0.269445
H	 0.0678120916	-4.3326085963	-3.1285155709	 0.091167
79.1691	95.1197	151.5348	159.3857	259.6072	301.0628	422.3655	427.0351	579.3305	582.5023	669.8277	722.2512	749.7871	789.1601	877.6144	1017.0747	1039.8352	1052.4152	1062.9184	1136.1567	1152.4153	1182.4227	1291.823	1305.5252	1357.3263	1428.3034	1439.8429	1481.0464	1483.6642	1506.4374	1557.1335	1620.5427	1795.8464	2969.0006	3052.641	3119.0485	3167.5108	3325.3885	3623.918
CN1C=C(NC=O)N=N1	Cn1cc(NC=O)nn1	
InChI=1S/C4H6N4O/c1-8-2-4(5-3-9)6-7-8/h2-3H,1H3,(H,5,9)	InChI=1S/C4H6N4O/c1-8-2-4(5-3-9)6-7-8/h2-3H,1H3,(H,5,9)
