19
gdb 70509	2.33767	1.87858	1.21765	3.6443	81.96	-0.234	-0.0424	0.1917	1058.829	0.160256	-385.925504	-385.917451	-385.916507	-385.957765	31.647	
C	 0.1459156763	 1.498092124	-0.0497202698	-0.464066
C	 0.0485919502	-0.0111547316	-0.0089195668	 0.210889
C	-0.8466385134	-0.6581757202	 1.0462893635	-0.320882
C	 0.6403377875	-0.7905566381	 1.1621705776	-0.077822
C	 1.3083055958	-2.132285887	 0.9335390367	-0.290965
C	 0.9400104476	-2.7810718617	-0.3689767582	-0.060378
C	 0.3628875454	-2.1324385459	-1.3861756524	-0.147178
C	 0.0548649334	-0.6845243191	-1.3478935539	 0.334976
O	-0.1648754794	-0.0633724564	-2.3731153802	-0.346933
H	 1.0872942357	 1.820266817	-0.5061776908	 0.124456
H	-0.6664900646	 1.9179839321	-0.6482577562	 0.138729
H	 0.0920575865	 1.9187119091	 0.9589682837	 0.10458
H	-1.3589350271	 0.0178705448	 1.7222283288	 0.119673
H	-1.421872717	-1.5312905625	 0.7580971969	 0.123
H	 1.1132908768	-0.1771678434	 1.923705341	 0.091595
H	 2.4024089454	-2.0205069748	 0.9638728773	 0.126168
H	 1.0681318159	-2.8143555555	 1.7611638229	 0.11932
H	 1.1987290933	-3.832234375	-0.4783212466	 0.106508
H	 0.1598555819	-2.6217939359	-2.3335022135	 0.108328
99.1949	168.9374	215.3772	254.4283	302.2932	345.9268	381.1859	446.9556	503.5882	523.2038	649.2509	664.1996	761.8654	776.4299	842.7489	868.4301	881.5629	929.1667	949.894	977.398	1019.3065	1044.7728	1062.8409	1100.8803	1124.5012	1128.1058	1141.1811	1199.8969	1237.1535	1274.0295	1349.8043	1369.8624	1407.6811	1415.2897	1418.897	1465.1964	1481.1874	1488.9723	1498.1613	1690.2713	1755.1624	2999.9575	3024.3247	3039.4553	3105.1606	3120.6158	3133.9238	3145.6192	3149.1701	3189.1304	3221.5823
CC12CC1CC=CC2=O	C[C@]12C[C@H]1CC=CC2=O	
InChI=1S/C8H10O/c1-8-5-6(8)3-2-4-7(8)9/h2,4,6H,3,5H2,1H3	InChI=1S/C8H10O/c1-8-5-6(8)3-2-4-7(8)9/h2,4,6H,3,5H2,1H3/t6-,8+/m1/s1
