18
gdb 34856	3.81183	1.28226	1.17858	0.7982	77.98	-0.2177	0.0342	0.2519	1087.7805	0.148848	-401.865571	-401.85802	-401.857076	-401.897351	30.184	
C	-0.0622509363	-1.1756200188	-0.0971680536	-0.396902
C	-0.0118518257	 0.0248800685	-0.0524756964	 0.318818
C	 0.0108434166	 1.470644407	 0.0447503237	-0.214876
C	-0.1362506974	 2.0691642526	 1.4801278743	 0.11964
C	 1.3985550869	 1.9351169918	 1.541573097	-0.226796
N	 1.4245651579	 2.0512427302	 0.0325128886	-0.122184
C	 1.2811408388	 3.4814335861	-0.3103087653	-0.187341
C	 0.4144323801	 4.254324305	 0.7206966265	-0.086048
O	-0.5505984944	 3.4174499988	 1.364821409	-0.270492
H	-0.0997218228	-2.2355127135	-0.1518522194	 0.195097
H	-0.654725536	 1.9232116405	-0.6966664844	 0.101411
H	-0.7869771094	 1.5863349375	 2.2122187495	 0.090323
H	 1.9755442297	 2.6830955825	 2.0891188546	 0.110677
H	 1.7198545403	 0.9344650756	 1.8362744894	 0.127978
H	 2.2775762008	 3.9353744829	-0.3553831811	 0.10912
H	 0.8525587404	 3.5372772586	-1.3160489433	 0.114417
H	 1.061265372	 4.7070430705	 1.4843446527	 0.103267
H	-0.1424636616	 5.0669130543	 0.2456769582	 0.113892
127.7528	141.9009	214.6266	330.111	369.1664	429.7856	453.0986	493.3513	520.795	627.1567	653.4024	655.7193	808.9718	830.9125	836.6268	885.6181	907.3365	925.1027	953.0581	963.5504	1040.7427	1055.6664	1092.0077	1137.2716	1140.1112	1176.4563	1223.1817	1238.7355	1261.7324	1281.0388	1282.9481	1332.1648	1352.4768	1369.6589	1405.3391	1492.3669	1495.0161	1525.9021	2234.055	3005.2517	3036.8961	3061.5804	3074.2592	3075.2311	3091.2539	3092.0188	3131.9805	3503.2998
C#CC1C2CN1CCO2	C#C[C@H]1[C@H]2CN1CCO2	
InChI=1S/C7H9NO/c1-2-6-7-5-8(6)3-4-9-7/h1,6-7H,3-5H2	InChI=1S/C7H9NO/c1-2-6-7-5-8(6)3-4-9-7/h1,6-7H,3-5H2/t6-,7+/m0/s1
