16
gdb 44592	3.31745	1.78125	1.43073	4.7535	75.17	-0.1998	-0.0215	0.1783	901.5373	0.126493	-400.715442	-400.708815	-400.70787	-400.746291	26.896	
O	 0.1466387214	 0.0674090119	 0.4404402049	-0.31814
C	 0.1261626604	 1.1804248191	-0.0046246971	 0.359997
C	-1.081860483	 2.1806094635	 0.1066007365	-0.335116
C	-0.7380279445	 3.3698036312	-0.790380744	-0.054139
C	 0.5153866681	 4.2848637544	-0.7049340611	-0.015857
N	 1.4776814731	 4.1069423373	 0.374177379	-0.261721
C	 1.8178880765	 2.779807962	 0.3980160436	-0.012874
C	 1.2035576674	 2.0622801396	-0.6023724122	-0.150189
C	 0.5339707561	 3.0565847836	-1.5405067628	-0.124826
H	-2.022463026	 1.7095369449	-0.2011529072	 0.121537
H	-1.1798357977	 2.4203281113	 1.1724364001	 0.128703
H	-1.5588935099	 3.848847431	-1.3155917967	 0.089491
H	 0.4245620076	 5.2911622094	-1.0950547359	 0.102141
H	 2.099176849	 4.8567801775	 0.6433112422	 0.250477
H	 2.318357005	 2.3772559331	 1.2725608936	 0.134506
H	 0.6291184965	 2.9799825202	-2.6186123029	 0.08601
116.5852	210.7254	334.6871	354.3417	467.7378	504.4167	551.9022	619.4347	690.5634	693.1755	754.6818	795.7476	820.5594	856.8645	881.0101	932.7375	972.5842	988.6056	1009.8922	1022.1359	1056.5103	1088.7507	1119.878	1133.867	1173.6715	1186.2557	1255.6674	1269.2589	1303.4737	1337.6207	1373.0912	1441.7344	1462.1725	1524.5461	1844.4624	3032.4759	3072.3725	3146.825	3153.9458	3192.0284	3194.4703	3582.6763
O=C1CC2C3NC=C1C23	O=C1C[C@H]2[C@H]3N[CH][C]1[C@@H]23	
InChI=1S/C7H7NO/c9-5-1-3-6-4(5)2-8-7(3)6/h2-3,6-8H,1H2	InChI=1S/C7H7NO/c9-5-1-3-6-4(5)2-8-7(3)6/h2-3,6-8H,1H2/t3-,6-,7-/m1/s1
