20
gdb 71714	2.27833	2.06672	1.72377	2.0569	81.3	-0.2173	0.0756	0.2929	942.0385	0.171139	-365.939375	-365.931684	-365.93074	-365.970849	31.391	
C	-0.0366161461	 1.4974519734	-0.0101133142	-0.51103
C	-0.0059242772	-0.0077382541	-0.0455690499	 0.278355
C	 0.6066813882	-0.8442958528	-1.2001300593	-0.293031
C	-0.2699403217	-1.970604728	-0.6355849441	-0.03962
N	 0.1902849076	-2.2208221259	 0.7955336484	-0.152352
C	 0.3516250258	-0.7948412111	 1.2346633354	-0.088294
C	-0.968832197	-1.4552713472	 1.3519798717	-0.12845
C	-1.3056075447	-0.9421599657	-0.0754993257	 0.304326
C	-2.6281720485	-0.5604343644	-0.6668693547	-0.537392
H	 0.9743870298	 1.9092663864	 0.0954026904	 0.120926
H	-0.468873334	 1.9126891843	-0.9267984236	 0.116897
H	-0.6296955715	 1.8614719837	 0.8368172656	 0.119059
H	 0.2485336539	-0.5080044374	-2.1789642915	 0.09792
H	 1.6904482178	-0.9914691432	-1.2271873171	 0.100053
H	-0.5080953852	-2.8874019149	-1.1743884085	 0.070024
H	 1.1037835802	-0.5770322184	 1.9842093571	 0.085977
H	-1.5503773184	-1.79186891	 2.2029767689	 0.089783
H	-3.0837563595	 0.2751858708	-0.1226028696	 0.121681
H	-2.5209162769	-0.25504401	-1.714102688	 0.121129
H	-3.3334377925	-1.3991830953	-0.6375258613	 0.124039
178.3283	207.7254	212.6252	228.8783	287.2622	334.248	429.5792	553.718	582.7444	616.3549	738.2811	753.5031	791.8381	800.3773	846.9098	859.5728	876.782	912.1006	929.1707	958.874	977.5709	1001.6837	1018.5683	1081.9938	1115.4372	1126.3033	1144.1407	1172.5617	1185.6802	1203.7913	1225.0387	1246.1937	1261.0404	1300.809	1345.1602	1354.1391	1411.8376	1416.4699	1481.4573	1483.1852	1488.7904	1493.7959	1496.3312	3018.0908	3021.1427	3044.193	3080.6429	3082.4469	3085.2848	3091.7453	3102.4712	3117.3637	3166.0841	3181.2379
CC12CC3N4C1C4C23C	C[C@@]12C[C@H]3N4[C@@H]1[C@H]4[C@@]23C	
InChI=1S/C8H11N/c1-7-3-4-8(7,2)6-5(7)9(4)6/h4-6H,3H2,1-2H3	InChI=1S/C8H11N/c1-7-3-4-8(7,2)6-5(7)9(4)6/h4-6H,3H2,1-2H3/t4-,5-,6+,7-,8+,9?/m1/s1
