14
gdb 124433	3.46375	1.24111	1.01052	3.9745	66.69	-0.2972	-0.0342	0.263	1122.5222	0.101592	-429.034511	-429.026592	-429.025647	-429.0682	27.537	
C	-0.0608748951	 1.5863301886	 0.0114815676	-0.390268
C	 0.1014966456	 0.057043741	-0.0189071364	-0.100998
C	 0.7815077953	-0.3906530455	-1.2400595204	 0.282679
N	 1.3193042843	-0.7130455803	-2.2094880674	-0.298333
N	 0.8254470865	-0.4328799988	 1.1545366495	 0.017727
C	 2.1167605072	-0.760340639	 1.3562250515	 0.075595
N	 2.2794611067	-1.0763237031	 2.6215248103	-0.222752
N	 1.0562468467	-0.9306125829	 3.1975964394	-0.084518
N	 0.1770134897	-0.5465596478	 2.33606106	-0.120687
H	 0.9136880195	 2.0780986175	-0.0258256386	 0.153173
H	-0.6550620762	 1.912347294	-0.8450924052	 0.155121
H	-0.5724982195	 1.8681013793	 0.9335730464	 0.166778
H	-0.8850909373	-0.4157248388	 0.017821228	 0.176922
H	 2.8690189465	-0.7696290541	 0.5848482551	 0.189559
34.1952	117.2848	154.3334	206.6822	236.3155	344.9779	385.5005	485.4255	561.3702	677.8349	720.4331	736.2393	868.2789	877.2348	987.5563	1002.8802	1044.024	1086.8753	1115.7197	1126.1241	1169.3754	1208.142	1311.0426	1329.7802	1355.9543	1409.6893	1460.67	1488.1036	1493.1465	1500.8672	2371.0381	3060.5716	3075.7175	3145.5338	3153.1219	3291.6375
CC(C#N)N1C=NN=N1	C[C@@H](C#N)n1cnnn1	
InChI=1S/C4H5N5/c1-4(2-5)9-3-6-7-8-9/h3-4H,1H3	InChI=1S/C4H5N5/c1-4(2-5)9-3-6-7-8-9/h3-4H,1H3/t4-/m0/s1
