19
gdb 39457	2.59085	1.73712	1.15813	1.7179	76.56	-0.2335	0.003	0.2365	1062.9224	0.161466	-419.168351	-419.160711	-419.159767	-419.200246	30.097	
C	 0.1151757166	 1.6011035673	 0.005690462	-0.267003
C	 1.1211171439	 0.6082446447	-0.4549632569	 0.027187
C	 2.4722286226	 0.4475985128	 0.2110262888	-0.196168
N	 3.0038433336	-0.8861161711	-0.0737046137	-0.207881
C	 2.6522628995	-1.8458630744	 0.6626531371	 0.101667
O	 1.8800477735	-1.7885150009	 1.7935687315	-0.24112
C	 0.4477000867	-1.7500508081	 1.6634153965	-0.076115
C	-0.1149849981	-0.3360740479	 1.5484480079	-0.15697
N	-0.1286612276	 0.1681262422	 0.1789160903	-0.088058
H	 0.3557897692	 2.1790032177	 0.8977605241	 0.108408
H	-0.5223161249	 2.1172262851	-0.7072638729	 0.11705
H	 1.1478924246	 0.3711709006	-1.5173455849	 0.101828
H	 3.1663280838	 1.1781184812	-0.2174034114	 0.109979
H	 2.4030077263	 0.6410503658	 1.287892609	 0.107639
H	 3.0371523248	-2.8477025293	 0.4600621316	 0.113456
H	 0.1260249522	-2.3574136077	 0.8093472588	 0.119875
H	 0.0726974808	-2.2130441728	 2.5805419674	 0.117432
H	-1.1588848296	-0.357189474	 1.8864579622	 0.109837
H	 0.4322602321	 0.306918389	 2.2572271624	 0.098957
147.1153	155.1087	222.9276	274.6998	309.5676	360.5443	402.3625	493.5859	520.1321	575.4917	696.2045	739.5373	797.5343	841.9527	905.2695	952.8736	971.9552	1002.2141	1012.6262	1025.6364	1054.8305	1092.9848	1110.0022	1121.4093	1141.7021	1173.7266	1180.7969	1253.176	1260.9914	1310.8516	1334.2021	1340.5607	1389.5392	1399.5784	1411.5926	1424.2649	1479.3216	1487.5234	1500.9652	1515.0684	1733.9626	2969.1687	3031.1084	3034.4622	3047.1582	3073.2334	3088.1505	3099.1785	3113.0184	3120.3435	3175.3795
C1C2CN=COCCN12	C1[C@H]2CN=COCCN12	
InChI=1S/C6H10N2O/c1-2-9-5-7-3-6-4-8(1)6/h5-6H,1-4H2/b7-5-	InChI=1S/C6H10N2O/c1-2-9-5-7-3-6-4-8(1)6/h5-6H,1-4H2/b7-5-/t6-,8?/m1/s1
