25
gdb 60532	2.37274	1.17541	0.98356	1.357	88.41	-0.2591	0.0711	0.3302	1372.5829	0.226218	-389.486532	-389.475628	-389.474684	-389.521755	42.053	
C	-0.0679863388	 1.6348343453	 0.0096365013	-0.408653
C	-0.0107198435	 0.0995063117	 0.0883076735	 0.013332
C	 0.8385050422	-0.336808136	 1.2716590531	 0.030305
C	 1.6950665795	-1.5794229631	 1.2368862263	-0.273674
C	 2.3415535919	-0.2185097377	 1.1986107088	-0.280532
C	-1.426770727	-0.5445982206	 0.0569079074	 0.352932
C	-1.3492823115	-2.0773190753	 0.0123377702	-0.41524
C	-2.3194534558	-0.0957675834	 1.2248111804	-0.425158
O	-1.9929469697	-0.0779559181	-1.1787868158	-0.47061
H	 0.9356835815	 2.0394875587	-0.1504062491	 0.107278
H	-0.7116818255	 1.9587828557	-0.8097864095	 0.132053
H	-0.4475894927	 2.0713834168	 0.9399454343	 0.106041
H	 0.4822485657	-0.2583469893	-0.8261790941	 0.071486
H	 0.4121545017	-0.0921406011	 2.2419548247	 0.079068
H	 1.7867263576	-2.1715608225	 2.1412809792	 0.107183
H	 1.7032723811	-2.165333167	 0.3240966264	 0.111659
H	 2.7759719753	 0.1042026819	 0.2576247357	 0.111202
H	 2.8793809733	 0.126089152	 2.0748581439	 0.107633
H	-0.9270622951	-2.4931165215	 0.9301437173	 0.12301
H	-2.3538604441	-2.4992579154	-0.1147003514	 0.093692
H	-0.7382817811	-2.405332779	-0.8335279757	 0.1154
H	-2.4633715877	 0.9869099523	 1.2166550428	 0.124325
H	-3.3065679545	-0.5663880339	 1.1438339413	 0.099293
H	-1.9013384858	-0.3863509252	 2.1934579305	 0.11641
H	-2.878926987	-0.448057685	-1.2514442915	 0.271565
58.9626	102.6078	174.4	217.4496	227.5613	264.6541	268.8752	275.6605	289.504	302.1783	348.2623	367.47	434.7566	452.7051	496.8184	543.0131	719.7181	780.7679	824.8138	836.1867	885.8845	916.2513	926.8167	950.4971	971.9211	992.5368	1002.4567	1057.1783	1074.7791	1077.9505	1093.8269	1126.0625	1141.1489	1194.4903	1199.7463	1216.3747	1223.6278	1230.4091	1304.6353	1346.9816	1367.6038	1396.1604	1399.3826	1416.524	1418.6242	1469.9083	1479.4113	1486.3417	1496.8972	1501.2238	1504.9849	1508.9252	1514.3573	3008.671	3026.7405	3033.3569	3041.4943	3091.4201	3097.7649	3100.7744	3126.7052	3127.1395	3127.2546	3130.6569	3134.0485	3139.4474	3204.5919	3220.0061	3807.6976
CC(C1CC1)C(C)(C)O	C[C@@H](C1CC1)C(C)(C)O	
InChI=1S/C8H16O/c1-6(7-4-5-7)8(2,3)9/h6-7,9H,4-5H2,1-3H3	InChI=1S/C8H16O/c1-6(7-4-5-7)8(2,3)9/h6-7,9H,4-5H2,1-3H3/t6-/m0/s1
