23
gdb 114873	2.60836	1.25262	1.18314	1.1751	83.95	-0.2612	0.0754	0.3366	1206.5064	0.208306	-388.288893	-388.280297	-388.279353	-388.32208	33.941	
O	-0.0345543988	 1.3166291598	-0.4604130214	-0.421712
C	-0.0390083952	-0.1038671856	-0.3929716113	-0.087609
C	-1.4217257625	-0.5468658428	 0.0891458201	 0.026963
C	-2.5695149404	-0.1574961931	-0.8774662551	-0.236043
C	-2.8227448494	-1.3742490023	-1.7835874091	 0.006694
C	-1.8709254843	-1.5804640025	-3.0006376369	-0.224299
C	-1.2214671794	-2.8047152337	-2.2940546662	-0.225979
C	-2.1672900748	-2.6098218833	-1.0715077017	 0.012046
C	-1.5489741631	-2.0849997281	 0.236689869	-0.257492
H	 0.8136332792	 1.5985959781	-0.8144773217	 0.284703
H	 0.1988727433	-0.5421878959	-1.3730504817	 0.088394
H	 0.7214996403	-0.4661857838	 0.3178319711	 0.081383
H	-1.5670743647	-0.0556067447	 1.0573662943	 0.075943
H	-3.4725792411	 0.0539755334	-0.2936644334	 0.089353
H	-2.3314604514	 0.7533135094	-1.4344323464	 0.110571
H	-3.8801560847	-1.4720337165	-2.0395216381	 0.058274
H	-2.3856331882	-1.8257096045	-3.9331725309	 0.093829
H	-1.2003064293	-0.7406769231	-3.2032083199	 0.096064
H	-1.3649296006	-3.7517589588	-2.8205427021	 0.094252
H	-0.15470478	-2.7105345389	-2.0697011948	 0.090813
H	-2.8213822133	-3.4653819062	-0.8889218654	 0.058857
H	-0.5914383257	-2.5657374183	 0.4706700882	 0.089541
H	-2.222756586	-2.3087934986	 1.0711894132	 0.095451
81.2092	128.0907	170.4499	227.4131	258.612	330.75	344.0228	360.5528	449.3511	597.1329	710.3888	727.9593	748.2353	787.7026	833.0963	838.5293	883.8474	895.7628	932.62	960.7189	976.7442	1019.3465	1023.2205	1063.935	1084.691	1090.4332	1108.5748	1159.2052	1170.9838	1179.1563	1207.9447	1225.3385	1241.7827	1257.3009	1266.568	1278.6014	1283.2593	1304.1205	1320.7572	1332.2219	1348.9395	1356.5518	1384.2845	1459.4239	1478.7617	1486.0893	1492.3389	1501.8362	1525.9286	2967.2198	3013.3785	3027.9133	3034.2198	3049.1025	3052.2017	3056.3058	3063.25	3069.488	3080.9631	3090.5615	3093.2986	3110.717	3832.2684
OCC1CC2CCC2C1	OC[C@H]1C[C@H]2CC[C@H]2C1	
InChI=1S/C8H14O/c9-5-6-3-7-1-2-8(7)4-6/h6-9H,1-5H2	InChI=1S/C8H14O/c9-5-6-3-7-1-2-8(7)4-6/h6-9H,1-5H2/t6-,7+,8-
