21
gdb 62849	2.66891	1.53597	1.35014	3.1181	82.06	-0.2298	-0.0032	0.2266	1068.0999	0.183054	-387.104669	-387.096364	-387.09542	-387.136934	33.549	
C	-0.1200144309	 1.5140362758	 0.0061258655	-0.459946
C	-0.0354485816	-0.0168833217	 0.0142669563	 0.334688
C	-1.4283345477	-0.5621206713	 0.3468234664	-0.470968
C	 0.764862386	-0.6239272816	-1.2021408481	-0.056554
C	 2.0692874499	-0.2602719908	-0.4340489809	-0.257451
C	 1.197114424	-0.6006802042	 0.8205841109	-0.152292
C	 1.0081631732	-2.0932032449	 0.5786504212	 0.43198
O	 1.0720031936	-3.0069160494	 1.3561044196	-0.343249
C	 0.708851405	-2.1410207648	-0.9415243176	-0.344498
H	 0.8181024247	 2.0140485502	-0.2390036997	 0.117584
H	-0.8649604259	 1.8381870474	-0.7298523221	 0.117476
H	-0.4472459972	 1.8834127012	 0.9840194053	 0.119376
H	-2.1453912662	-0.2853773706	-0.4345871987	 0.115878
H	-1.462261105	-1.6471143863	 0.4637883284	 0.129836
H	-1.7872920315	-0.1270204044	 1.2860396787	 0.120782
H	 0.5833447688	-0.2792647529	-2.2210393134	 0.064709
H	 2.9471237227	-0.8862028083	-0.617031287	 0.102394
H	 2.3562219869	 0.7874107195	-0.4867330615	 0.111873
H	 1.4464177652	-0.2913522748	 1.8343585018	 0.074121
H	-0.2508059626	-2.6195485879	-1.1500757558	 0.122842
H	 1.4857546785	-2.6966094401	-1.4762868194	 0.12142
129.4581	165.4011	196.6754	216.3489	321.4167	359.7431	403.3767	450.8821	465.6373	507.4778	599.7579	610.4317	655.1327	761.6244	800.6198	820.4808	878.9388	928.0215	939.7792	958.7145	968.0507	993.293	1002.2241	1020.0011	1065.2279	1096.4117	1116.8051	1144.8878	1188.4805	1197.5918	1210.5102	1229.9066	1259.379	1274.0722	1280.8431	1314.8766	1408.0901	1427.14	1466.246	1482.6754	1490.2869	1503.9241	1512.4819	1525.8184	1866.2187	3030.5491	3036.3639	3061.1856	3068.86	3086.5969	3092.88	3103.7379	3110.0513	3125.9299	3126.8955	3134.8537	3158.0933
CC1(C)C2CC1C(=O)C2	CC1(C)[C@H]2C[C@@H]1C(=O)C2	
InChI=1S/C8H12O/c1-8(2)5-3-6(8)7(9)4-5/h5-6H,3-4H2,1-2H3	InChI=1S/C8H12O/c1-8(2)5-3-6(8)7(9)4-5/h5-6H,3-4H2,1-2H3/t5-,6+/m0/s1
