16
gdb 68701	2.02169	1.80344	1.16448	4.0623	77.99	-0.2418	0.0031	0.2449	1080.3478	0.122516	-400.716868	-400.708366	-400.707422	-400.749711	32.38	
C	 0.0029180505	 1.5263723182	 0.1105477974	-0.472473
C	-0.0099555663	 0.0316388108	 0.0586254563	 0.309496
C	 1.1101638723	-0.8539853126	-0.374818159	-0.352303
C	 0.5626771652	-0.982141167	 1.0680650707	-0.033249
C	 1.3544863297	-0.7837425836	 2.2260395162	 0.183295
C	 2.0189726775	-0.6184658425	 3.2155348413	-0.40926
C	-0.7859074922	-1.7026830845	 0.9381503598	 0.383798
O	-1.2735893392	-2.7043011792	 1.3699713299	-0.3303
N	-1.2783422601	-0.7135944679	 0.0680488677	-0.389099
H	 1.0009711942	 1.8896133665	 0.37069964	 0.137761
H	-0.268452692	 1.9562662312	-0.8603087531	 0.129427
H	-0.7084306188	 1.8895476157	 0.8572866797	 0.142026
H	 0.9368226324	-1.664094965	-1.0772855683	 0.127133
H	 2.0990197089	-0.4077138123	-0.4237660524	 0.13804
H	 2.5990835222	-0.4784229788	 4.0937002734	 0.193007
H	-1.8057851544	-0.9363396491	-0.7697881196	 0.242699
108.0389	145.4546	154.3521	199.3731	285.3025	341.4252	393.5834	422.7413	519.0567	532.1488	581.5616	598.7622	650.567	654.0675	693.2478	714.454	782.6633	833.3956	916.6262	964.0765	982.7852	1047.7649	1062.0935	1101.6709	1146.3166	1245.9811	1310.7533	1332.6639	1385.7603	1427.5687	1478.5979	1489.8733	1499.2883	1906.6044	2236.9157	3036.8179	3101.898	3118.3103	3125.8079	3211.6974	3502.2063	3535.9365
CC12CC1(C#C)C(=O)N2	C[C@@]12C[C@]1(C#C)C(=O)N2	
InChI=1S/C7H7NO/c1-3-7-4-6(7,2)8-5(7)9/h1H,4H2,2H3,(H,8,9)	InChI=1S/C7H7NO/c1-3-7-4-6(7,2)8-5(7)9/h1H,4H2,2H3,(H,8,9)/t6-,7-/m1/s1
