23
gdb 58232	2.39374	1.20639	1.01251	0.3352	81.38	-0.252	0.0612	0.3131	1324.1963	0.202771	-425.413214	-425.402367	-425.401422	-425.448788	40.644	
C	-1.4345094835	-0.3889780305	-0.0775997734	-0.392166
C	 0.0816046523	-0.2700514021	 0.1366835287	 0.014846
C	 0.5492504273	-1.2470160828	 1.2239277891	-0.400976
C	 0.8364135111	-0.4473322405	-1.1976341917	 0.065126
O	 0.3575737487	 0.4849098564	-2.1766692304	-0.450214
C	 2.3460846846	-0.302358979	-1.0924264752	 0.421358
O	 2.7521391579	 0.952699496	-0.5961534699	-0.480562
C	 3.2266841755	-1.4547341644	-0.7138772551	-0.298294
C	 3.2218823907	-0.9401183344	-2.1385555741	-0.336309
H	-1.785042205	 0.2840249382	-0.8631068516	 0.116754
H	-1.7042780751	-1.4101297234	-0.3733770042	 0.110931
H	-1.9756805906	-0.157967133	 0.8455294924	 0.107153
H	 0.3106365784	 0.7477615584	 0.485928981	 0.07463
H	 0.415128312	-2.2876196511	 0.9041283199	 0.108173
H	 1.6007431063	-1.1033837129	 1.4802992509	 0.131124
H	-0.0415880432	-1.1078198396	 2.1350972378	 0.1097
H	 0.610300031	-1.4392978853	-1.6105255604	 0.078231
H	 0.2737841082	 1.3365335446	-1.7339832692	 0.274159
H	 2.6827657268	 1.5757296157	-1.3280424509	 0.280305
H	 4.0884244408	-1.220355041	-0.0996038424	 0.12252
H	 2.7685417616	-2.4157267038	-0.5089448545	 0.115143
H	 2.7527558712	-1.5408478725	-2.9099974149	 0.117533
H	 4.0885559729	-0.374743303	-2.462912672	 0.110835
61.662	86.8554	132.1558	165.4518	207.4814	228.5627	255.2798	281.4303	304.9	333.288	387.7328	410.1589	443.7261	467.2814	520.1443	568.9696	772.3932	807.6931	839.2751	907.7068	918.1851	935.4896	938.6446	960.9806	981.2218	988.5662	1039.1664	1053.1903	1082.8627	1121.2456	1136.2729	1189.044	1193.1276	1245.0795	1262.531	1299.1058	1328.988	1347.6612	1371.1333	1390.4192	1399.8123	1413.825	1424.8305	1454.9734	1489.5408	1490.9618	1497.9984	1505.0319	1514.8986	2997.423	3028.1478	3028.6978	3035.6139	3088.7858	3095.0362	3124.3645	3127.932	3133.171	3140.8389	3217.8263	3232.8229	3796.0804	3802.5526
CC(C)C(O)C1(O)CC1	CC(C)[C@@H](O)C1(O)CC1	
InChI=1S/C7H14O2/c1-5(2)6(8)7(9)3-4-7/h5-6,8-9H,3-4H2,1-2H3	InChI=1S/C7H14O2/c1-5(2)6(8)7(9)3-4-7/h5-6,8-9H,3-4H2,1-2H3/t6-/m1/s1
