19
gdb 95821	2.15165	1.73393	1.45406	2.7797	71.81	-0.2532	-0.0083	0.2449	1009.8599	0.160924	-460.147594	-460.139421	-460.138477	-460.179859	32.253	
O	 0.2640479421	 1.3276972029	 0.2286469555	-0.443149
C	 0.03387424	-0.0594807365	 0.0033577131	 0.079048
C	-1.4662441365	-0.4058178088	 0.0424241465	-0.093791
O	-2.2947800232	 0.2462231017	-0.9128470829	-0.258173
C	-2.1439091374	-0.1749677149	-2.2572883619	-0.120479
C	-0.8777753087	 0.4426124433	-2.8785931101	 0.071219
O	-0.8124139095	 1.8231178971	-2.4886357113	-0.443896
C	 0.3889675736	-0.2988727845	-2.4895308789	-0.065547
C	 0.772538406	-0.5349827092	-1.2350825522	-0.109036
H	 0.2421683892	 1.7562386498	-0.6384129829	 0.291378
H	 0.4583314753	-0.57607586	 0.8743429367	 0.085323
H	-1.5827731485	-1.4978379356	-0.044181009	 0.09093
H	-1.8578102966	-0.0886444014	 1.0132733444	 0.11902
H	-2.1244709909	-1.2703476781	-2.3377509726	 0.105268
H	-3.0293276091	 0.2023339648	-2.779541545	 0.116963
H	-0.9803702533	 0.4133746601	-3.9699770023	 0.082332
H	-1.4634287566	 1.917468158	-1.7765490222	 0.29494
H	 1.0260599596	-0.6274495089	-3.3067702806	 0.096899
H	 1.7229114746	-1.03301508	-1.0621693943	 0.10075
129.927	160.9254	224.1275	280.1186	297.0198	312.6902	339.3703	435.4053	450.0502	522.9069	602.729	677.3398	733.8014	766.0021	772.1562	807.641	868.5924	910.195	956.1343	983.9707	1000.8138	1043.6937	1069.2891	1095.5559	1114.6413	1145.4406	1233.4938	1245.6276	1292.1093	1300.7171	1339.4818	1364.0462	1380.2067	1382.1259	1410.6843	1418.4844	1439.2405	1457.5018	1472.763	1491.5728	1717.2231	2984.4666	3013.3006	3024.5742	3035.1623	3080.335	3091.4174	3148.5102	3172.0821	3704.2116	3737.4589
OC1COCC(O)C=C1	O[C@H]1COC[C@@H](O)C=C1	
InChI=1S/C6H10O3/c7-5-1-2-6(8)4-9-3-5/h1-2,5-8H,3-4H2	InChI=1S/C6H10O3/c7-5-1-2-6(8)4-9-3-5/h1-2,5-8H,3-4H2/t5-,6+
