21
gdb 109397	3.05324	1.0791	0.84926	2.0581	81.69	-0.2226	0.0272	0.2498	1380.7656	0.183258	-424.222775	-424.213658	-424.212714	-424.256844	34.205	
O	 0.0448934983	 1.4396605165	 0.3430407408	-0.4129
C	 0.0281411794	 0.0447885065	 0.120876212	-0.151821
C	-1.3803940697	-0.4703698635	-0.0418622942	 0.272557
C	-2.4302134145	 0.3520474203	-0.008735214	-0.144859
C	-3.8827280498	-0.0427346429	-0.1277845119	-0.260288
C	-4.226793385	-0.993273983	-1.2797700159	-0.066068
O	-3.7399529602	-2.3116157752	-1.1127436063	-0.240541
C	-2.3563805465	-2.4750778321	-1.3457027224	-0.065515
C	-1.4623278661	-1.9747446804	-0.2055085746	-0.303224
H	 0.9609681215	 1.7195059535	 0.4193137733	 0.289445
H	 0.6070311643	-0.2217856125	-0.7827047627	 0.09141
H	 0.5053503959	-0.4993900111	 0.9567810338	 0.092875
H	-2.2260957718	 1.4064738229	 0.1458992428	 0.105736
H	-4.2282434538	-0.5094046088	 0.8064386483	 0.11427
H	-4.4893259063	 0.8616601693	-0.2557303354	 0.098598
H	-5.3153937247	-1.094021123	-1.3500598216	 0.099603
H	-3.8623113129	-0.5720745165	-2.230988119	 0.08541
H	-2.2076705094	-3.5536989703	-1.4679973481	 0.099894
H	-2.0659379211	-1.9837704309	-2.2888997874	 0.084759
H	-0.4548132742	-2.3776555225	-0.3760382442	 0.091419
H	-1.8182462233	-2.4340181764	 0.7274926068	 0.119239
61.9025	121.8871	169.9306	203.6073	227.2388	245.7219	330.6683	349.7636	403.5128	455.0876	502.4991	547.041	646.6189	742.6738	816.939	858.352	871.6197	939.2256	971.6879	1011.6426	1039.7026	1068.9048	1083.999	1096.241	1097.0917	1139.4662	1167.6065	1224.741	1238.4842	1242.8001	1264.9364	1316.3559	1330.2508	1356.0865	1369.6779	1384.7576	1409.9	1429.2937	1456.5776	1463.3684	1468.5022	1483.5509	1497.0888	1507.4629	1744.3557	2928.0351	2940.3503	2968.8222	2975.4276	3003.9114	3006.9964	3044.6525	3056.8952	3062.8143	3066.9428	3184.6702	3842.823
OCC1=CCCOCC1	OCC1=CCCOCC1	
InChI=1S/C7H12O2/c8-6-7-2-1-4-9-5-3-7/h2,8H,1,3-6H2	InChI=1S/C7H12O2/c8-6-7-2-1-4-9-5-3-7/h2,8H,1,3-6H2
