16
gdb 56859	3.34698	1.14485	1.01521	4.5823	68.94	-0.258	0.009	0.267	1171.1887	0.123959	-437.835099	-437.826882	-437.825938	-437.868608	30.132	
O	-0.0736146421	 1.4446111579	-0.0437844639	-0.409561
C	-0.001060728	 0.0296761682	 0.024909927	-0.040459
C	 0.6459965956	-0.5273943257	-1.1807992959	 0.258065
N	 1.1863729086	-0.9434826314	-2.1137396197	-0.320229
C	 0.6909334455	-0.497591034	 1.2731613829	-0.083797
C	 0.2430354793	-0.1215973446	 2.674917498	-0.158916
C	-1.2787276643	-0.0823088073	 2.7427800173	-0.099542
O	-1.3732303499	-1.4061268865	 2.1360349291	-0.280349
C	 0.0480187117	-1.5289530044	 2.1580581244	 0.088795
H	 0.8247384137	 1.7943221681	-0.0302995071	 0.293533
H	-1.0397189971	-0.3147278248	 0.0391006488	 0.158599
H	 1.7700412835	-0.6055928813	 1.1966969508	 0.113918
H	 0.9253855951	 0.2773659719	 3.4125394536	 0.110662
H	-1.6657219727	-0.1119849683	 3.7659872252	 0.119306
H	-1.7990993676	 0.6866665015	 2.1635407078	 0.130722
H	 0.4733751286	-2.4920012792	 2.4139371217	 0.119255
46.6788	129.5638	162.5165	208.7444	256.3821	325.4274	343.0869	507.9084	523.0591	566.8388	623.9916	774.9799	791.4672	815.3435	917.6927	954.4671	961.2895	982.9996	1001.7703	1037.6788	1053.5881	1070.9649	1075.7585	1116.1148	1166.814	1179.8684	1256.165	1263.866	1304.1077	1316.3622	1363.7746	1421.4895	1440.5887	1519.4529	2354.5236	3045.2393	3079.2855	3099.4916	3149.6045	3188.4671	3212.164	3802.0066
OC(C#N)C1C2COC12	O[C@@H](C#N)[C@H]1[C@H]2CO[C@@H]12	
InChI=1S/C6H7NO2/c7-1-4(8)5-3-2-9-6(3)5/h3-6,8H,2H2	InChI=1S/C6H7NO2/c7-1-4(8)5-3-2-9-6(3)5/h3-6,8H,2H2/t3-,4+,5-,6-/m1/s1
