18
gdb 55368	3.14848	1.34104	1.16921	3.2285	71.26	-0.2374	0.0362	0.2736	1093.8687	0.149262	-439.113546	-439.105499	-439.104555	-439.146426	30.96	
N	 0.7918965111	-0.1412739362	-0.2386983883	-0.515378
C	-0.2714495278	 0.4844306579	 0.3279020577	 0.37018
O	-0.2379266467	 1.5909494505	 0.8302431371	-0.37739
C	-1.5657916873	-0.3344761447	 0.3396030333	 0.017118
O	-1.4361765129	-1.5081312061	-0.4659382442	-0.286368
C	-2.3058397688	-2.5232497232	 0.0436651923	-0.09864
C	-2.4279257458	-2.2521120287	 1.530672003	-0.059905
C	-1.1383493847	-1.9834932042	 2.2628913766	-0.288962
C	-1.9507481307	-0.8331432883	 1.7262923415	-0.041978
H	 1.6531047074	 0.3696851427	-0.3402067042	 0.259371
H	 0.6448123941	-1.001096342	-0.740077868	 0.271303
H	-2.3588987957	 0.3224294976	-0.046635982	 0.099338
H	-3.2934449075	-2.4645571523	-0.4385861136	 0.100832
H	-1.8552158246	-3.4891953441	-0.2075614749	 0.110665
H	-3.2863353319	-2.6449643866	 2.0621859858	 0.094844
H	-1.1350123087	-2.1255505775	 3.3374023751	 0.117324
H	-0.2012805549	-2.2271936618	 1.7719209891	 0.119986
H	-2.4320626246	-0.139188133	 2.4021406337	 0.10766
64.8436	113.8384	182.6401	287.0914	325.1238	351.7639	383.5567	456.2994	531.3395	636.6288	652.3882	705.5644	740.2014	794.1381	832.3936	892.278	921.3461	958.2624	970.3306	1002.584	1036.934	1075.5984	1078.5354	1090.5002	1102.876	1121.7104	1127.7792	1197.2179	1239.2031	1305.7621	1326.4423	1328.0381	1361.0618	1378.9982	1401.8328	1485.2419	1517.6565	1594.14	1805.4111	2990.9026	3002.1078	3069.0077	3132.6435	3184.8117	3206.6333	3222.5149	3595.7473	3736.3945
NC(=O)C1OCC2CC12	NC(=O)[C@H]1OC[C@H]2C[C@@H]12	
InChI=1S/C6H9NO2/c7-6(8)5-4-1-3(4)2-9-5/h3-5H,1-2H2,(H2,7,8)	InChI=1S/C6H9NO2/c7-6(8)5-4-1-3(4)2-9-5/h3-5H,1-2H2,(H2,7,8)/t3-,4-,5+/m1/s1
