20
gdb 13290	6.75565	0.74633	0.70925	2.4633	71.39	-0.2423	0.0754	0.3177	1576.9998	0.176497	-386.111209	-386.102	-386.101056	-386.146619	31.776	
O	-0.0417837617	 1.4249606988	-0.1612743349	-0.421127
C	 0.038756483	 0.0154003935	-0.0155960004	-0.073944
C	-1.3799558316	-0.538184715	-0.0177938628	-0.166568
C	-1.4294135512	-2.0614334325	 0.1386063646	-0.215075
C	-2.8487886592	-2.616073634	 0.116992826	-0.018835
C	-3.5787192098	-2.6625225387	-1.2468125293	-0.074209
O	-3.7215536805	-4.0954624826	-1.177066724	-0.271918
C	-3.0127861292	-4.1524624438	 0.0769707835	-0.091361
H	 0.8521281174	 1.7790199817	-0.1669539314	 0.285765
H	 0.6159847963	-0.4387565241	-0.8380182892	 0.084711
H	 0.5435301493	-0.2607181382	 0.9252081595	 0.083678
H	-1.9412912793	-0.0575569518	 0.7929685371	 0.106225
H	-1.8661223598	-0.2365572327	-0.953897028	 0.109519
H	-0.8473398043	-2.5368568499	-0.6634616452	 0.098905
H	-0.9452025085	-2.3514442514	 1.0814461618	 0.096977
H	-3.4474146778	-2.1448975424	 0.9021399713	 0.078617
H	-4.5498156578	-2.155612501	-1.3004405092	 0.100815
H	-2.9703887095	-2.3520440739	-2.1079206949	 0.095087
H	-2.0734091176	-4.7167069735	-0.0067427792	 0.094277
H	-3.6220777884	-4.5979467784	 0.8731215649	 0.09846
42.6332	68.5659	86.8577	123.6383	155.5177	264.3833	283.9613	312.7785	417.3571	487.6528	749.6776	772.4701	859.3857	877.8932	892.2759	975.7796	982.9257	1009.5052	1037.9149	1047.484	1069.7667	1095.2417	1125.1063	1155.9058	1165.0409	1190.8026	1224.145	1238.7219	1267.7288	1299.8015	1309.4306	1315.4724	1321.6452	1356.3697	1388.2339	1405.6853	1464.5843	1485.265	1500.0447	1511.9562	1528.4338	1537.369	2956.3348	2981.4481	2993.96	3001.6166	3008.3213	3029.1714	3033.7561	3041.2995	3045.421	3068.0295	3077.3329	3831.032
OCCCC1COC1	OCCCC1COC1	
InChI=1S/C6H12O2/c7-3-1-2-6-4-8-5-6/h6-7H,1-5H2	InChI=1S/C6H12O2/c7-3-1-2-6-4-8-5-6/h6-7H,1-5H2
