14
gdb 62368	2.44523	1.83022	1.20744	4.6243	66.6	-0.2626	-0.026	0.2365	978.3431	0.100111	-436.648709	-436.641131	-436.640187	-436.680659	28.907	
O	-0.0337138135	 1.3947440904	-0.0737452251	-0.464322
C	 0.0164288474	-0.0036513046	-0.0105576783	 0.329316
C	 0.9945375111	-0.5254466283	-0.97191549	 0.224924
N	 1.7959929247	-0.8976278023	-1.7168525101	-0.324532
C	-0.0124542923	-0.6938362892	 1.4175221128	-0.245855
C	-1.4824631008	-0.1461015679	 1.5147469822	-0.261592
C	-1.3975453669	-0.6753193173	 0.0342924373	-0.217002
C	-0.6797805641	-1.8711245655	 0.6891408261	 0.452496
O	-0.7075293738	-3.0587981593	 0.7008950393	-0.305805
H	 0.8541374852	 1.743326675	 0.0659274868	 0.303062
H	 0.7726905355	-0.6818708932	 2.1694343886	 0.111852
H	-2.1580816926	-0.6753612996	 2.1853572903	 0.130985
H	-1.5581551203	 0.9343508934	 1.6011657992	 0.147279
H	-2.1527029597	-0.6405263117	-0.746060999	 0.119194
118.3019	150.2952	210.2271	299.8602	318.8934	373.9497	484.0686	487.8154	533.3074	540.3313	648.8689	722.28	753.969	775.3788	809.4999	883.6879	984.788	1006.4542	1020.168	1071.4546	1093.0926	1127.5157	1140.0101	1165.428	1197.853	1211.9706	1227.9116	1357.8736	1502.2415	1936.5331	2352.9939	3108.1792	3159.2954	3169.3059	3193.7838	3805.9253
OC1(C#N)C2CC1C2=O	O[C@@]1(C#N)[C@H]2C[C@@H]1C2=O	
InChI=1S/C6H5NO2/c7-2-6(9)3-1-4(6)5(3)8/h3-4,9H,1H2	InChI=1S/C6H5NO2/c7-2-6(9)3-1-4(6)5(3)8/h3-4,9H,1H2/t3-,4+,6-
