18
gdb 68710	2.41974	1.63335	1.34274	1.9497	83.77	-0.229	0.04	0.269	1040.8945	0.146742	-364.721394	-364.713123	-364.712178	-364.753796	32.642	
C	-0.0336800093	 1.517278238	 0.0983830366	-0.488752
C	-0.0308804802	 0.0200444851	 0.0085899986	 0.295791
C	 1.1654571736	-0.8077728268	-0.3618720426	-0.38562
C	 0.5891717978	-0.9949193974	 1.0340366694	 0.172036
C	 1.323925072	-0.7091831624	 2.2180929551	 0.229039
C	 1.9460158798	-0.4745224673	 3.2218222617	-0.431007
C	-0.6810193278	-1.8128794909	 0.939635855	-0.157812
N	-1.8158640503	-0.9399035514	 1.3328621753	-0.329189
C	-1.2634948562	-0.8575173182	-0.0426864375	-0.128485
H	 0.926628718	 1.8897413529	 0.4678703354	 0.127603
H	-0.2153726819	 1.9736606083	-0.8819262137	 0.117913
H	-0.8153249801	 1.8539725259	 0.7856871142	 0.141187
H	 1.0829164178	-1.6175052062	-1.0823798083	 0.108481
H	 2.111801889	-0.2770194145	-0.3927741162	 0.12652
H	 2.4870753823	-0.2678408515	 4.1112853115	 0.183968
H	-0.7669508381	-2.8923904334	 0.9781309232	 0.097813
H	-2.6616877438	-1.5111914431	 1.2843566302	 0.22467
H	-1.8813811025	-1.0705451269	-0.9073795778	 0.095844
115.7395	135.3816	196.548	216.2067	287.6727	358.2809	419.9609	508.7953	548.1494	556.8829	569.4459	623.2254	647.2821	686.6923	777.39	790.6732	840.9257	849.1356	932.0755	954.0935	969.7218	982.9529	1044.0419	1071.1055	1098.402	1116.386	1131.4674	1135.2414	1208.7419	1259.0986	1295.4312	1343.2774	1355.3101	1389.6218	1418.041	1484.4831	1493.0722	1497.2284	2230.944	3028.7722	3092.8806	3112.9492	3114.414	3175.711	3188.6388	3205.7906	3449.3953	3504.6085
CC12CC1(C#C)C1NC21	C[C@@]12C[C@]1(C#C)[C@H]1N[C@@H]21	
InChI=1S/C8H9N/c1-3-8-4-7(8,2)5-6(8)9-5/h1,5-6,9H,4H2,2H3	InChI=1S/C8H9N/c1-3-8-4-7(8,2)5-6(8)9-5/h1,5-6,9H,4H2,2H3/t5-,6+,7+,8-/m1/s1
