19
gdb 108941	3.28538	1.0404	0.8505	1.6238	79.28	-0.2366	0.0107	0.2473	1364.8292	0.158912	-423.015815	-423.00706	-423.006115	-423.050164	32.571	
O	 0.1438469282	 1.3938031591	 0.1047278638	-0.405966
C	 0.0212940955	-0.0132040893	 0.0294730139	-0.157357
C	-1.3923631483	-0.5111542847	 0.0394480927	 0.262785
C	-2.4940717356	 0.2165147589	 0.2393070647	-0.261056
C	-3.7198482316	-0.6163940663	 0.174783228	 0.44682
C	-4.950368134	-0.3218740991	 0.9261076634	-0.251044
O	-4.8830952685	-0.0779792369	-0.4796400185	-0.283188
C	-3.26325503	-2.027342366	-0.2170934701	-0.318551
C	-1.7133694896	-1.9768198852	-0.1755632127	-0.319988
H	-0.3143703776	 1.7635987451	-0.6575234023	 0.28571
H	 0.5413530441	-0.4198440748	-0.8562231038	 0.09666
H	 0.5618528448	-0.4086288728	 0.9001586032	 0.126129
H	-2.5227166705	 1.2796078085	 0.4429082711	 0.103881
H	-5.6001268298	-1.1428544651	 1.2308568394	 0.109075
H	-5.0072086402	 0.5665030562	 1.5556723991	 0.109796
H	-3.6724679394	-2.7944374831	 0.444621246	 0.108841
H	-3.626858667	-2.2402108837	-1.2261979373	 0.125751
H	-1.2529924283	-2.364931159	-1.0924795924	 0.108633
H	-1.3099926621	-2.5847775417	 0.6448423019	 0.11307
37.341	98.7272	145.0292	165.8535	315.2327	333.1068	363.2317	401.2988	423.5157	506.4419	518.337	654.7771	764.8233	824.1298	850.4471	871.4532	912.2358	917.9379	963.6926	982.8502	989.468	1051.8888	1073.6523	1128.2139	1142.8545	1166.0549	1170.9716	1215.4113	1224.7389	1248.7973	1272.0214	1286.2601	1336.3073	1387.3602	1415.9058	1424.3375	1478.1732	1487.4565	1499.3968	1527.8687	1713.3617	2948.022	3019.6201	3032.4021	3045.4193	3066.0323	3067.312	3108.68	3151.9111	3214.8153	3809.0433
OCC1=CC2(CO2)CC1	OCC1=C[C@]2(CO2)CC1	
InChI=1S/C7H10O2/c8-4-6-1-2-7(3-6)5-9-7/h3,8H,1-2,4-5H2	InChI=1S/C7H10O2/c8-4-6-1-2-7(3-6)5-9-7/h3,8H,1-2,4-5H2/t7-/m0/s1
