21
gdb 76737	1.96006	1.74827	1.12851	1.3565	78.34	-0.2256	0.0671	0.2927	1165.3358	0.179942	-424.195036	-424.18511	-424.184165	-424.228898	37.918	
C	-0.7260044428	 1.4568702231	-0.5394846384	-0.413812
C	-0.2571106469	 0.0282177897	-0.2847152579	-0.054054
C	 1.0703621363	-0.505556638	-0.9726282691	-0.06474
C	 1.8859836875	 0.3988620932	-1.8894107595	-0.409999
C	 1.6182496255	-0.841638173	 0.4189149075	 0.349084
O	 2.4529380189	-1.9039448812	 0.711441252	-0.460688
C	 1.6588142694	 0.3685396433	 1.3092717742	-0.398183
C	 0.337102388	-0.3323660222	 1.0832465241	 0.297285
O	-0.3916907883	-0.9042685656	 2.1123115532	-0.467078
H	 0.0428172796	 2.196082912	-0.2942008053	 0.114001
H	-1.003757117	 1.6039641135	-1.5887395746	 0.115089
H	-1.6088881436	 1.6851445586	 0.0680555099	 0.112439
H	-1.0756492005	-0.6646939447	-0.5054715263	 0.07623
H	 0.8375781976	-1.4362762463	-1.5047131147	 0.063607
H	 2.162086667	 1.3389496823	-1.402326372	 0.114948
H	 2.8135338917	-0.1000041918	-2.1894935098	 0.12164
H	 1.331666781	 0.6467438881	-2.8010650236	 0.112342
H	 1.998549708	-2.7180253832	 0.4662330109	 0.284488
H	 2.094583716	 0.1414798501	 2.2777364952	 0.119689
H	 1.8711711259	 1.3686459433	 0.9385619817	 0.101721
H	-0.6329830234	-0.2149041711	 2.7398838825	 0.285989
116.9723	163.867	196.6084	201.8465	224.8651	229.981	248.2027	255.5753	318.4294	366.6949	408.3791	484.4722	488.5771	602.8572	631.9702	709.6044	722.4851	781.0836	832.5265	875.578	970.4478	1003.5819	1007.2286	1044.1479	1056.8607	1075.1602	1129.0103	1148.959	1171.6814	1192.3113	1213.0163	1235.0647	1288.1437	1318.7492	1352.0445	1363.6701	1384.7845	1406.393	1410.4053	1430.2139	1489.9159	1491.8947	1501.4489	1504.8209	1519.6622	3018.4212	3028.8688	3033.2571	3050.8784	3090.2375	3095.7286	3100.2962	3102.6838	3108.669	3198.9845	3788.9642	3798.2949	116.9723	163.8659	196.6079	201.8467	224.8649	229.9795	248.2004	255.575	318.4272	366.6948	408.3789	484.4722	488.5771	602.8572	631.9702	709.6045	722.485	781.0836	832.5263	875.5778	970.4476	1003.5816	1007.2284	1044.1476	1056.8605	1075.1595	1129.0103	1148.9588	1171.6813	1192.3113	1213.0161	1235.0647	1288.1436	1318.7492	1352.0442	1363.6705	1384.7844	1406.3929	1410.4051	1430.2135	1489.9157	1491.8944	1501.4486	1504.8206	1519.6619	3018.4212	3028.8689	3033.2571	3050.8783	3090.2375	3095.7286	3100.2962	3102.6838	3108.669	3198.9846	3788.9633	3798.2942
CC1C(C)C2(O)CC12O	C[C@H]1[C@@H](C)[C@@]2(O)C[C@@]12O	
InChI=1S/C7H12O2/c1-4-5(2)7(9)3-6(4,7)8/h4-5,8-9H,3H2,1-2H3	InChI=1S/C7H12O2/c1-4-5(2)7(9)3-6(4,7)8/h4-5,8-9H,3H2,1-2H3/t4-,5+,6+,7-
