20
gdb 47429	2.93795	1.32347	0.96588	2.7091	79.62	-0.2296	-0.0178	0.2118	1240.7856	0.171429	-403.148809	-403.140408	-403.139464	-403.182405	31.919	
O	 0.2500112484	 0.0073169624	 0.3781244714	-0.313936
C	 0.0574718489	 1.1747169957	 0.1606393017	 0.406699
C	-1.2919456091	 1.8341756684	-0.1332728093	-0.314187
C	-0.9486530179	 3.2737052024	-0.551517732	-0.222181
C	 0.3613783533	 3.5805477074	 0.2050676958	-0.235897
C	 1.1506322143	 2.2667536522	 0.1317444678	-0.049765
N	 2.1180654911	 2.093320368	 1.1948191954	-0.067769
C	 3.1434934659	 1.0764710814	 0.982323204	-0.204918
C	 3.4895533343	 2.5217775041	 0.9176174752	-0.233856
H	-1.864730706	 1.2564987302	-0.8627383491	 0.127464
H	-1.864251722	 1.8201459584	 0.8037290852	 0.137329
H	-0.7763867723	 3.3205821672	-1.6331076962	 0.106034
H	-1.7424843293	 3.9876255743	-0.3206422394	 0.106821
H	 0.9064760245	 4.4315442488	-0.2103876122	 0.101515
H	 0.1541439661	 3.7988713512	 1.2589308884	 0.116467
H	 1.6139228719	 2.1827280125	-0.8745736442	 0.075592
H	 3.4001757009	 0.4832516704	 1.8542990981	 0.120548
H	 3.1220568262	 0.5209057085	 0.0482841768	 0.1198
H	 3.704392827	 2.9422286953	-0.0638197605	 0.107048
H	 4.0039215839	 3.0075144412	 1.7414968231	 0.117193
59.7463	90.4068	166.3745	179.88	280.6912	335.6754	407.489	468.4013	545.9029	553.6529	616.8541	710.0964	789.1418	833.6301	869.2998	895.471	910.0379	925.2189	954.7545	1011.8112	1020.782	1044.528	1094.9541	1115.7472	1118.4182	1133.2556	1163.0421	1173.7242	1177.0291	1210.3857	1230.815	1298.3969	1305.4103	1311.0871	1325.2372	1338.1448	1372.4133	1446.6797	1493.012	1494.2928	1506.2453	1519.2128	1847.7106	2872.1901	3034.656	3042.1064	3049.0191	3095.3049	3098.9402	3103.53	3108.921	3114.7224	3182.2142	3202.1428
O=C1CCCC1N1CC1	O=C1CCC[C@H]1N1CC1	
InChI=1S/C7H11NO/c9-7-3-1-2-6(7)8-4-5-8/h6H,1-5H2	InChI=1S/C7H11NO/c9-7-3-1-2-6(7)8-4-5-8/h6H,1-5H2/t6-/m1/s1
