16
gdb 29367	3.38134	1.2245	0.90282	4.1474	79.87	-0.1961	-0.0283	0.1678	1220.1554	0.125991	-434.113388	-434.104666	-434.103722	-434.146538	32.488	
N	 0.1168495644	 1.4429090874	 0.0472575661	-0.620733
C	 0.047393596	 0.0263969448	-0.0157087754	 0.161484
C	-1.0550693973	-0.8170355403	-0.0125331987	-0.125451
N	-0.6175985844	-2.0984760773	-0.0133732054	-0.309315
C	 0.7692400631	-2.1279226251	-0.0358075184	 0.174951
C	 1.4583696325	-3.3816286277	-0.0487555526	 0.060649
O	 0.9001774919	-4.4702369145	-0.0387777923	-0.342179
C	 1.2044324697	-0.7960138516	-0.0262899013	 0.17569
N	 2.4950827899	-0.2899871693	-0.0737594332	-0.615628
H	 0.3067207653	 1.8546472926	-0.8621160291	 0.245414
H	-0.7452299363	 1.8478584734	 0.3921561959	 0.239896
H	-2.1072162118	-0.5764237538	 0.004949542	 0.122997
H	-1.161814779	-2.9442642954	-0.0026475737	 0.275976
H	 2.5680297886	-3.308975538	-0.0713429021	 0.050825
H	 3.2090639091	-0.8918329322	 0.3103799959	 0.25058
H	 2.5425270285	 0.6428446871	 0.3194262325	 0.254844
109.1044	132.4646	168.2327	228.7066	253.5331	294.4503	351.7922	364.3025	391.3232	491.4795	532.8889	639.3326	644.1959	688.473	744.4398	756.8781	773.921	827.1118	841.0744	975.614	1015.9775	1110.8893	1145.5077	1231.3965	1247.2985	1294.3855	1381.4995	1407.5469	1465.4223	1502.2272	1572.6896	1618.4911	1648.0006	1657.9748	1736.2576	2878.9207	3250.6583	3490.0818	3531.4511	3587.2836	3642.3067	3678.0147
NC1=CNC(C=O)=C1N	Nc1c[nH]c(C=O)c1N	
InChI=1S/C5H7N3O/c6-3-1-8-4(2-9)5(3)7/h1-2,8H,6-7H2	InChI=1S/C5H7N3O/c6-3-1-8-4(2-9)5(3)7/h1-2,8H,6-7H2
