19
gdb 74979	2.77229	1.55357	1.25459	1.6477	75.94	-0.2166	0.0595	0.2761	1071.1919	0.160589	-419.234492	-419.226272	-419.225328	-419.267058	32.355	
C	-0.1549551658	 1.527443793	 0.1457329045	-0.466577
C	 0.081135415	 0.0404674219	 0.0218899352	 0.402521
C	-1.1369936926	-0.9156652195	 0.1449791332	-0.27912
C	-0.4665483141	-1.6165461781	 1.3672928119	-0.218366
C	 0.8157603155	-0.7629676034	 1.1504460072	-0.048337
N	 1.9138109183	-1.4467848169	 0.4775976083	-0.350352
C	 1.8462092368	-1.0991262934	-0.7499586381	 0.44715
N	 2.6386921931	-1.5533278333	-1.7697653636	-0.577141
O	 0.8833906265	-0.2230987154	-1.1568425399	-0.290574
H	 0.7956622933	 2.0676243693	 0.1938026264	 0.123805
H	-0.7259406746	 1.9074564677	-0.7081078658	 0.125764
H	-0.7216967506	 1.7452183129	 1.056307194	 0.120636
H	-2.0890526847	-0.4190063337	 0.3488512056	 0.099587
H	-1.2580779078	-1.5491259097	-0.7361750551	 0.111523
H	-0.9708522606	-1.4173765413	 2.3166546161	 0.096523
H	-0.3029096061	-2.6912830788	 1.2723226717	 0.109344
H	 1.172786941	-0.2113067004	 2.0264042085	 0.066377
H	 3.5030822051	-1.9695658127	-1.4600633094	 0.266511
H	 2.7263922924	-0.9274593582	-2.5554540707	 0.260726
76.1734	157.7919	222.0792	252.787	299.8657	356.0833	400.2105	430.5142	472.3237	557.5387	596.043	665.1733	703.5074	739.7927	752.2503	844.8691	890.6838	900.5896	919.8888	946.7459	979.0954	981.7798	1043.7111	1110.299	1161.646	1177.5975	1200.6883	1202.7898	1220.4892	1246.9392	1274.0081	1316.6315	1319.1941	1407.5001	1418.4437	1470.1597	1482.3926	1486.0424	1491.6252	1616.0871	1740.8019	3033.1675	3044.1599	3061.2999	3068.4863	3104.0693	3110.6918	3113.8364	3131.3644	3588.401	3702.0765
CC12CCC1N=C(N)O2	C[C@]12CC[C@H]1N=C(N)O2	
InChI=1S/C6H10N2O/c1-6-3-2-4(6)8-5(7)9-6/h4H,2-3H2,1H3,(H2,7,8)	InChI=1S/C6H10N2O/c1-6-3-2-4(6)8-5(7)9-6/h4H,2-3H2,1H3,(H2,7,8)/t4-,6+/m1/s1
