18
gdb 36025	1.91302	1.40125	0.95711	3.8286	81.08	-0.2726	0.0303	0.3029	1265.5739	0.145934	-364.784048	-364.774728	-364.773784	-364.818664	34.41	
C	-0.4392049036	 3.293146736	 2.6430683916	-0.450004
C	-0.2807936215	 2.7360285816	 1.589709223	 0.311651
C	-0.0495167145	 2.0566330097	 0.3175927295	-0.440845
C	 1.4202480754	 2.0635288176	-0.1020382409	 0.377653
C	 2.356951561	 1.3332975966	 0.8564656744	-0.418311
C	 2.0873203379	-0.1054310636	 0.9170108636	 0.269389
N	 1.855748365	-1.237145554	 0.9503228112	-0.313442
C	 1.7347450439	 2.0165987383	-1.5747620541	-0.312806
C	 1.9591341359	 3.2895884792	-0.7919406735	-0.312074
H	-0.5989783146	 3.7844519319	 3.5708935075	 0.201276
H	-0.4053911777	 1.0200216894	 0.3857721452	 0.155046
H	-0.6473329599	 2.5344856796	-0.4674631447	 0.131746
H	 3.3985044134	 1.4765253554	 0.5506995934	 0.146501
H	 2.2555801151	 1.7502908351	 1.8652744376	 0.165338
H	 2.6026619919	 1.4498168214	-1.8943928934	 0.124135
H	 0.9048029997	 1.9811557819	-2.2721442647	 0.121825
H	 1.277883703	 4.1184833313	-0.9502735279	 0.125461
H	 2.9801966696	 3.5912321525	-0.584327518	 0.117462
47.9535	93.4575	132.1819	143.2176	305.9563	324.0776	325.9882	358.8088	384.7943	395.4342	484.8341	585.5424	624.2171	651.3712	753.5636	777.0796	870.3013	909.2109	918.1268	923.7294	975.4478	987.2394	1010.3147	1019.5701	1062.7079	1087.9656	1184.202	1208.9405	1211.6843	1312.6711	1319.2236	1341.109	1389.472	1458.6658	1465.8441	1478.4367	1510.4855	2236.9908	2360.0833	3023.7296	3044.9671	3060.4191	3087.1114	3133.2959	3136.9488	3211.2955	3224.6001	3504.3602
C#CCC1(CC#N)CC1	C#CCC1(CC#N)CC1	
InChI=1S/C8H9N/c1-2-3-8(4-5-8)6-7-9/h1H,3-6H2	InChI=1S/C8H9N/c1-2-3-8(4-5-8)6-7-9/h1H,3-6H2
