15
gdb 133496	3.59759	0.74907	0.70244	3.7662	54.78	-0.2591	0.0223	0.2814	1521.4903	0.107718	-585.499462	-585.489904	-585.488959	-585.536264	32.729	
N	-0.0238864156	 1.347205235	-0.1081151026	-0.526071
C	 0.0763607666	 0.0082913403	 0.129830336	 0.41485
O	 1.1295038555	-0.5310632579	 0.4074565548	-0.352969
C	-1.2446387779	-0.7545456646	 0.0287442652	-0.331374
C	-1.0111620746	-2.2606066708	-0.0760355241	-0.321991
C	-2.2982333309	-3.047340699	 0.017819676	 0.280695
F	-3.1640529516	-2.7079094782	-0.9559384272	-0.090685
F	-2.0746701192	-4.3646576337	-0.0886790917	-0.076764
F	-2.9259134943	-2.8400473321	 1.1899777775	-0.08711
H	 0.7965237198	 1.9166727085	 0.019281956	 0.264336
H	-0.9040902316	 1.7991642471	-0.2826048229	 0.260877
H	-1.8332506091	-0.5342185983	 0.9278108279	 0.144834
H	-1.8295681651	-0.3910789216	-0.8225483275	 0.127134
H	-0.5311056895	-2.518365607	-1.0236739259	 0.138803
H	-0.3440354125	-2.5913790976	 0.7223890286	 0.155433
19.0621	57.7663	101.9365	129.8866	156.5863	225.132	327.2069	356.051	458.3859	508.315	536.8233	562.1071	591.9731	648.821	668.017	794.2214	841.5578	872.5146	994.9663	1068.6643	1094.3558	1127.9908	1178.4605	1242.735	1256.3943	1288.0358	1326.4702	1374.6192	1419.448	1467.8658	1479.9929	1619.4559	1800.1576	3040.9987	3081.0787	3085.1935	3136.1429	3603.6571	3739.4865
NC(=O)CCC(F)(F)F	NC(=O)CCC(F)(F)F	
InChI=1S/C4H6F3NO/c5-4(6,7)2-1-3(8)9/h1-2H2,(H2,8,9)	InChI=1S/C4H6F3NO/c5-4(6,7)2-1-3(8)9/h1-2H2,(H2,8,9)
