20
gdb 73667	2.19742	1.98642	1.48986	1.5685	77.55	-0.2457	0.0267	0.2725	992.6982	0.173422	-403.194263	-403.186568	-403.185623	-403.226223	30.743	
C	-0.0728712729	 1.5384284472	 0.1358057611	-0.444843
C	 0.0265320966	 0.0193668464	 0.0188269302	 0.290218
C	-1.3519222963	-0.6873153444	-0.0018142754	-0.231645
C	-1.1028040784	-2.0636190817	 0.6351098986	-0.222186
C	-0.1082441847	-1.7509500119	 1.7685412254	-0.22632
C	 0.8193367985	-0.6831461114	 1.1794729497	 0.060395
O	 1.9526506387	-1.2971423026	 0.5053788864	-0.237358
C	 1.7858775841	-1.0230544499	-0.8089298629	 0.104342
N	 0.7971812788	-0.3342059504	-1.1976154696	-0.295252
H	 0.9211546243	 1.9960408509	 0.1389326228	 0.118772
H	-0.6287497551	 1.9491176853	-0.7121215261	 0.12873
H	-0.5891309529	 1.8248156375	 1.0586385321	 0.1083
H	-2.0635045028	-0.1161247744	 0.6069989823	 0.092018
H	-1.7474418651	-0.7382269206	-1.0186950214	 0.112176
H	-2.0178812	-2.5428899201	 0.9925947704	 0.096877
H	-0.6435505153	-2.7398763227	-0.0942835693	 0.113308
H	-0.6397012016	-1.3201823401	 2.6259877072	 0.101105
H	 0.4519623202	-2.6176382047	 2.1282079426	 0.110797
H	 1.2292814705	-0.0008062362	 1.9279456755	 0.08457
H	 2.5564174432	-1.436425936	-1.45152862	 0.135997
88.8672	199.0361	228.1343	271.3609	309.1205	354.9886	417.7248	519.5558	578.5542	619.2727	632.6694	792.6531	804.2524	841.5665	890.2346	914.3398	921.7622	930.0708	951.6729	965.6362	994.4338	1045.385	1047.3039	1104.0648	1129.5085	1145.7469	1192.7427	1208.8678	1233.4321	1262.8964	1290.0514	1321.152	1336.8826	1338.9952	1361.2638	1372.9405	1404.3037	1473.0686	1481.7851	1485.221	1494.3469	1501.3294	1700.8438	3030.0518	3034.7944	3036.3211	3049.5313	3080.7424	3097.4724	3102.3289	3104.1317	3110.7639	3113.6471	3205.7792
CC12CCCC1OC=N2	C[C@]12CCC[C@H]1OC=N2	
InChI=1S/C7H11NO/c1-7-4-2-3-6(7)9-5-8-7/h5-6H,2-4H2,1H3	InChI=1S/C7H11NO/c1-7-4-2-3-6(7)9-5-8-7/h5-6H,2-4H2,1H3/t6-,7+/m1/s1
