19
gdb 39487	2.26811	1.8959	1.28183	1.6999	76.75	-0.2408	-0.0056	0.2353	1027.5833	0.161264	-422.99657	-422.988972	-422.988028	-423.028354	30.222	
C	-0.0272127513	 1.2398216094	-0.1914316425	-0.065035
C	 1.4499633676	 1.5565447219	 0.1250782771	-0.261899
C	 1.8740137775	 1.4410940871	 1.5832668475	 0.043743
O	 0.9298240477	 0.9342389769	 2.5283159998	-0.243761
C	 2.1020905751	 0.1478469931	 2.2798837491	 0.009402
C	 1.9971247163	-1.1569577235	 1.5932336702	-0.039288
C	 0.9708531575	-1.6549713441	 0.8998989371	-0.096104
C	-0.3685921574	-0.996645784	 0.6549303993	-0.13559
O	-0.3320964135	-0.1117839876	-0.4663151187	-0.247719
H	-0.6682613848	 1.6265399513	 0.6138294525	 0.103917
H	-0.2890232426	 1.767895744	-1.1139164553	 0.103494
H	 2.0805694732	 0.9217749503	-0.5075389407	 0.122889
H	 1.6337690121	 2.5908692502	-0.1878160605	 0.104397
H	 2.4391501219	 2.2926846836	 1.9658083014	 0.093578
H	 2.8117455065	 0.1639378025	 3.1084532381	 0.095026
H	 2.9132470119	-1.742521383	 1.6519887927	 0.09124
H	 1.1164050793	-2.6186145655	 0.4174022935	 0.095897
H	-1.104604406	-1.7636170887	 0.3938548844	 0.099699
H	-0.7189286711	-0.4700310137	 1.5462760051	 0.126113
135.7706	189.4246	223.0421	271.5715	306.8766	367.2785	412.9202	497.7299	561.2802	602.2018	699.6847	741.4255	775.2246	815.4369	856.7912	905.5958	945.3127	971.8174	991.2074	1007.8392	1043.8266	1054.0493	1097.5883	1109.4294	1135.3788	1150.6338	1236.0722	1264.7287	1302.8874	1305.843	1339.3345	1366.7409	1383.0775	1404.0658	1414.9821	1438.9169	1452.8493	1472.7771	1482.9382	1497.3253	1723.5757	3004.6389	3035.296	3049.0866	3076.1974	3076.6543	3089.1169	3100.3796	3102.3964	3136.0481	3161.482
C1CC2OC2C=CCO1	C1C[C@H]2O[C@H]2C=CCO1	
InChI=1S/C7H10O2/c1-2-6-7(9-6)3-5-8-4-1/h1-2,6-7H,3-5H2/b2-1-	InChI=1S/C7H10O2/c1-2-6-7(9-6)3-5-8-4-1/h1-2,6-7H,3-5H2/b2-1-/t6-,7+/m0/s1
