17
gdb 86502	7.20921	0.61539	0.60708	1.9373	92.96	-0.244	-0.0258	0.2181	1833.1385	0.133612	-384.620506	-384.611244	-384.6103	-384.655487	33.542	
C	-0.6065431681	 1.1686089932	 0.2372377769	-0.400453
C	 0.2571328141	-0.0601334928	 0.0474847639	 0.17431
C	 0.9155968459	-0.2927152917	-1.3299392788	-0.307769
C	 2.2559344347	-0.2452327569	-0.5444200062	-0.100711
O	 1.5574541571	 0.0761927593	 0.6840248325	-0.292715
C	 3.0111883636	-1.4841520554	-0.4744277123	 0.516653
C	 3.6469804236	-2.5135590354	-0.4259491089	-0.336922
C	 4.3543858688	-3.673929113	-0.3735698608	 0.307958
C	 4.9831773039	-4.7039703918	-0.3288943254	-0.561842
H	-0.1124914143	 2.0584874884	-0.1652085467	 0.120092
H	-1.5685846638	 1.0413914165	-0.2714650204	 0.118715
H	-0.8027008439	 1.3357069047	 1.3009229769	 0.132187
H	-0.2565832836	-0.9507536883	 0.4332552498	 0.0854
H	 0.6938923385	-1.2383354222	-1.8231069361	 0.124499
H	 0.7930354589	 0.53125936	-2.0351477336	 0.114723
H	 2.926410295	 0.5741286157	-0.8333933445	 0.112361
H	 5.5352790195	-5.6099495303	-0.2879467864	 0.193515
34.2383	79.5848	113.0115	214.3331	235.8913	243.694	331.7361	380.4513	471.4333	501.1644	527.0609	555.4947	591.3958	610.8975	698.2788	741.9779	876.9723	889.3174	913.3063	959.9387	991.9744	1061.5794	1089.5695	1134.7387	1186.5825	1202.9584	1249.2746	1258.2893	1318.848	1354.955	1391.5564	1410.5377	1482.4018	1488.1831	1494.5318	2180.0648	2356.1198	3012.845	3020.0822	3033.2163	3085.4627	3105.9601	3113.3843	3150.8348	3504.6386
CC1CC(O1)C#CC#C	C[C@H]1C[C@@H](O1)C#CC#C	
InChI=1S/C8H8O/c1-3-4-5-8-6-7(2)9-8/h1,7-8H,6H2,2H3	InChI=1S/C8H8O/c1-3-4-5-8-6-7(2)9-8/h1,7-8H,6H2,2H3/t7-,8-/m0/s1
