16
gdb 106098	2.56433	1.67246	1.29421	4.2973	68.65	-0.2501	-0.0033	0.2469	997.4499	0.124673	-437.82762	-437.820041	-437.819097	-437.860161	28.668	
O	 0.0654115699	 1.3510015452	-0.3348434367	-0.406931
C	 0.0789689644	-0.0108582665	 0.0443511038	-0.213804
C	-1.3008668772	-0.5795449849	 0.0520116845	 0.367387
C	-2.0163386355	-1.8753471475	 0.1191678382	-0.16209
C	-2.8497530154	-1.3414490563	 1.2805107703	-0.194605
N	-2.4558442396	 0.0669948533	 0.8507206785	-0.271026
C	-3.1668236228	 0.1459347326	-0.4662713555	 0.437931
O	-4.0185730088	 0.8965672441	-0.8170374047	-0.312415
C	-2.2917912666	-0.895742555	-1.0643578428	-0.259488
H	-0.5097435076	 1.8123679906	 0.2874949008	 0.301364
H	 0.6991727649	-0.5414042193	-0.6855496746	 0.124701
H	 0.5396013351	-0.1509483618	 1.0346691044	 0.106646
H	-1.6433041369	-2.8729255732	-0.0827364148	 0.111149
H	-3.9304584939	-1.5167797446	 1.2959352222	 0.124256
H	-2.4170030266	-1.5698604841	 2.2570176367	 0.124017
H	-2.1037208235	-1.1673014027	-2.0941309704	 0.122909
81.4337	86.5149	204.8411	257.3964	366.8435	408.2396	457.3901	523.584	614.595	671.4269	725.0131	783.4651	792.5753	852.7317	901.8453	936.6655	961.254	971.3886	991.3091	1019.318	1064.4526	1080.3502	1093.3824	1121.0609	1163.0927	1177.2547	1234.7054	1279.2593	1293.3906	1376.3485	1405.9192	1469.6165	1495.3733	1512.7053	1927.9192	2984.6823	3050.4055	3078.1995	3115.0924	3183.7408	3218.0103	3792.4657
OCC12C3CN1C(=O)C23	OC[C@@]12[C@H]3CN1C(=O)[C@@H]23	
InChI=1S/C6H7NO2/c8-2-6-3-1-7(6)5(9)4(3)6/h3-4,8H,1-2H2	InChI=1S/C6H7NO2/c8-2-6-3-1-7(6)5(9)4(3)6/h3-4,8H,1-2H2/t3-,4-,6-/m0/s1
