16
gdb 125142	2.96672	1.34805	0.99262	3.6597	73.12	-0.2493	-0.022	0.2274	1171.2269	0.123929	-437.858614	-437.85046	-437.849516	-437.892472	28.997	
C	-0.3604623043	 1.5360331877	 0.1746217458	-0.516413
C	-0.0452236134	 0.0789165093	 0.0470375581	 0.04663
C	 0.2589985129	-0.6546907055	-1.0640492466	 0.386447
O	 0.4698165114	-1.9435036625	-0.7284957031	-0.220683
N	 0.3015336548	-2.0932902329	 0.641186002	-0.137474
C	 0.0023031497	-0.8987725608	 1.0833891293	-0.021861
C	 0.3952859883	-0.2906388404	-2.4829211803	-0.053961
C	 1.1101505335	-1.1408307541	-3.4499681126	-0.173585
O	-0.3130602393	-1.0914886477	-3.4407359347	-0.223288
H	 0.3934398554	 2.0600404332	 0.7725414845	 0.140114
H	-0.4059785369	 2.0245135518	-0.8017807479	 0.134332
H	-1.3275915704	 1.690666197	 0.6646102024	 0.142274
H	-0.1782946219	-0.7620214709	 2.1411109688	 0.132616
H	 0.3460070534	 0.7800484446	-2.6720203421	 0.104088
H	 1.5942959272	-0.6738882824	-4.3066772799	 0.120747
H	 1.5468433497	-2.0757006863	-3.1064301738	 0.14002
49.1257	79.474	157.8918	173.3524	262.28	276.9851	424.7089	474.6647	614.6887	650.8285	701.7902	736.8924	841.9607	901.3891	909.0869	940.2835	958.3802	1000.5501	1014.4793	1066.3197	1092.6338	1145.709	1163.8701	1169.2823	1206.2846	1259.6776	1302.7048	1397.5893	1411.3774	1430.3001	1483.1608	1494.4895	1515.0873	1526.7002	1675.0513	3036.0123	3088.2583	3090.3848	3118.6057	3132.2776	3187.8151	3236.2523
CC1=C(ON=C1)C1CO1	Cc1c(onc1)[C@H]1CO1	
InChI=1S/C6H7NO2/c1-4-2-7-9-6(4)5-3-8-5/h2,5H,3H2,1H3	InChI=1S/C6H7NO2/c1-4-2-7-9-6(4)5-3-8-5/h2,5H,3H2,1H3/t5-/m1/s1
