18
gdb 90249	3.81054	1.392	1.33121	1.455	71.89	-0.233	0.0344	0.2674	1001.4415	0.14896	-438.940949	-438.933934	-438.93299	-438.971982	29.468	
O	-0.0155109987	 1.5035536277	 0.0055581142	-0.446032
C	 0.0675167675	 0.0966028562	-0.0201614669	 0.181292
C	 0.5007683265	-0.5547092747	 1.3255790603	-0.301754
C	-0.793946294	-1.330526906	 1.6448761083	 0.363493
C	-0.5775329369	-2.728612025	 2.2898836521	-0.280208
N	-0.3504554572	-3.2501603873	 0.8505044413	-0.37884
C	-1.2094330266	-2.0359553416	 0.4286232077	 0.016592
C	-1.3177680838	-0.5521757907	-0.0871209181	-0.04338
O	-1.8133002235	-0.2508141249	 1.3073825958	-0.388309
H	-0.6695929543	 1.7103420164	 0.6868701771	 0.282253
H	 0.7125564209	-0.161820768	-0.8635471961	 0.090194
H	 1.3899327017	-1.1860026646	 1.24376378	 0.097552
H	 0.6956943757	 0.2069993207	 2.084710207	 0.115276
H	 0.2660218845	-2.8618398927	 2.9728028835	 0.117377
H	-1.4772275691	-3.1953023474	 2.6936340697	 0.136718
H	 0.6308085796	-3.099953142	 0.6212250099	 0.227698
H	-2.2373005607	-2.3934214381	 0.5088404269	 0.114392
H	-2.0198306815	-0.2344548481	-0.8583669525	 0.095687
135.4566	271.4926	288.8133	321.0062	444.5503	472.5366	503.4751	512.0375	594.6391	652.6871	698.8024	760.0544	799.5547	820.0378	836.6642	845.0755	873.0467	934.8497	954.3069	999.1632	1004.4471	1060.0838	1073.1218	1093.2228	1127.3671	1146.7749	1177.3102	1223.0032	1236.5157	1247.2236	1268.8797	1286.5501	1307.4818	1314.6565	1347.3603	1412.3871	1442.4997	1480.2257	1491.2394	3059.9119	3064.837	3086.1515	3092.3859	3110.4851	3130.3551	3136.9136	3487.7894	3758.5029
OC1CC23CNC2C1O3	O[C@H]1C[C@]23CN[C@@H]2[C@H]1O3	
InChI=1S/C6H9NO2/c8-3-1-6-2-7-5(6)4(3)9-6/h3-5,7-8H,1-2H2	InChI=1S/C6H9NO2/c8-3-1-6-2-7-5(6)4(3)9-6/h3-5,7-8H,1-2H2/t3-,4-,5+,6-/m0/s1
