23
gdb 63967	2.94044	1.33024	1.31152	1.658	83.99	-0.2425	0.0787	0.3212	1138.3257	0.206859	-388.296775	-388.288187	-388.287243	-388.329275	34.624	
C	 0.2106707842	 1.4628173333	-0.1366754131	-0.431539
C	-0.0120217322	-0.0581702172	-0.0218907359	 0.307408
C	-1.5183152328	-0.3298195489	 0.0986862456	-0.43189
C	 0.5991538161	-0.8283572998	-1.2348959264	-0.256961
C	 2.0414899464	-1.2143099271	-0.8672851685	-0.06841
C	 3.1151028339	-0.112830508	-0.947226559	-0.083665
O	 3.0386660849	 0.1344708986	 0.4739624917	-0.295858
C	 2.1578561931	-1.0038694201	 0.6675806268	 0.13009
C	 0.7734244502	-0.6387068045	 1.1880829856	-0.257626
H	 1.2708558826	 1.7210300993	-0.1236084327	 0.14003
H	-0.2391242543	 1.8560266971	-1.0553685967	 0.101828
H	-0.2596713053	 1.979288556	 0.7079586579	 0.106425
H	-2.0584341415	 0.0458287646	-0.7779654936	 0.109437
H	-1.7253520628	-1.4023448615	 0.1854576292	 0.10475
H	-1.9394831601	 0.1654428644	 0.9807120889	 0.110448
H	 0.0212609069	-1.7439194311	-1.4067193388	 0.092393
H	 0.5440893003	-0.2449642178	-2.1606600908	 0.094992
H	 2.3393089839	-2.1813086537	-1.2746564865	 0.07089
H	 4.1126432177	-0.4663783161	-1.2390888978	 0.097711
H	 2.8660346099	 0.777522549	-1.5378679487	 0.097432
H	 2.6558874357	-1.781117754	 1.2586219064	 0.067206
H	 0.8250678385	 0.0549239832	 2.0334711849	 0.105701
H	 0.2880298746	-1.5562504459	 1.5458347417	 0.08921
132.7249	155.1386	232.0226	234.3538	285.7112	319.2914	351.3167	370.8773	391.415	413.6918	580.6788	641.745	765.5929	779.6147	851.1773	860.7605	884.0832	888.9868	930.5638	938.3371	956.7994	986.6521	1016.3234	1021.9601	1042.0259	1065.7796	1094.7902	1151.8167	1163.9152	1168.5502	1193.0841	1240.2028	1242.4099	1272.9536	1303.8317	1316.3393	1323.0088	1345.2533	1362.898	1374.3034	1400.4731	1423.3912	1467.3744	1479.9946	1486.3551	1497.0849	1502.875	1512.7151	1528.3682	3006.7703	3018.3673	3020.5373	3026.666	3032.3536	3040.6534	3050.4398	3070.3537	3082.0541	3085.4785	3089.3032	3091.8008	3099.4402	3136.6293
CC1(C)CC2COC2C1	CC1(C)C[C@H]2CO[C@H]2C1	
InChI=1S/C8H14O/c1-8(2)3-6-5-9-7(6)4-8/h6-7H,3-5H2,1-2H3	InChI=1S/C8H14O/c1-8(2)3-6-5-9-7(6)4-8/h6-7H,3-5H2,1-2H3/t6-,7-/m0/s1
