15
gdb 7684	4.10657	1.64017	1.54095	4.3687	61.74	-0.2398	0.0077	0.2475	856.1513	0.117778	-399.786707	-399.779249	-399.778305	-399.817986	28.542	
C	 0.0317077098	 1.5559925185	 0.0697924371	-0.469388
C	 0.0740799991	 0.0465467101	 0.0540673509	 0.392214
O	-1.1103695357	-0.5565639729	-0.3932414535	-0.456713
C	 1.3067179348	-0.7797327014	-0.2240105704	-0.088402
N	 2.5207339231	-0.2127262027	 0.3604252448	-0.340383
C	 1.9576241396	-0.1565483097	 1.651667577	 0.407963
O	 2.3767432032	 0.2855866419	 2.6831489401	-0.343722
C	 0.6754652036	-0.8156134339	 1.1673618394	-0.266754
H	 0.9583458738	 1.9919891887	 0.4478119962	 0.137002
H	-0.1331184327	 1.9419201144	-0.9442470834	 0.11112
H	-0.7917285873	 1.8987539228	 0.7027645915	 0.142736
H	-1.3096224897	-0.2052053002	-1.2685625697	 0.288125
H	 1.3455893176	-1.5774145891	-0.9543109631	 0.116869
H	 3.060812699	 0.5435904687	-0.0448341111	 0.242267
H	 0.0901836615	-1.589073295	 1.6423608641	 0.127066
139.7644	203.4636	223.125	259.6044	299.0653	391.0781	424.1931	463.9265	519.322	608.7049	662.0933	728.805	776.7433	847.7176	877.9045	936.9865	972.9213	1009.9853	1023.6799	1063.7097	1094.6713	1128.9289	1144.7251	1251.8433	1275.3723	1283.1256	1331.7437	1410.5579	1421.9579	1485.2574	1497.9206	1895.0282	3027.986	3099.5506	3135.4452	3203.1572	3236.4892	3547.0656	3794.8316
CC1(O)C2NC(=O)C12	C[C@@]1(O)[C@H]2NC(=O)[C@@H]12	
InChI=1S/C5H7NO2/c1-5(8)2-3(5)6-4(2)7/h2-3,8H,1H3,(H,6,7)	InChI=1S/C5H7NO2/c1-5(8)2-3(5)6-4(2)7/h2-3,8H,1H3,(H,6,7)/t2-,3-,5-/m0/s1
