14
gdb 132972	3.09856	1.40996	0.975	8.1413	69.09	-0.2358	-0.0308	0.205	1118.134	0.101344	-478.014024	-478.006314	-478.005369	-478.04675	27.864	
C	-0.0151320222	 1.4922499231	 0.0267244507	-0.34881
N	-0.0008596622	 0.0351362008	 0.0098701165	-0.062856
C	-0.0390517675	-0.6804548134	-1.1507122407	 0.102585
N	-0.0298862814	-1.9641922854	-1.2534197247	-0.338075
C	 0.0235350335	-2.7717052494	-0.1034417157	 0.315307
O	 0.0342832551	-3.9832496895	-0.1472471818	-0.355576
C	 0.0654239589	-2.0196726438	 1.1613544943	 0.103036
F	 0.1168673049	-2.7097301769	 2.29203771	-0.048843
C	 0.0529177163	-0.6737019568	 1.1949506389	-0.111332
H	 0.8912050419	 1.8827195771	 0.4997327493	 0.155043
H	-0.0591924814	 1.8579947223	-0.9997877795	 0.156294
H	-0.8893921034	 1.8644650963	 0.5696559893	 0.155043
H	-0.0806832536	-0.0709341617	-2.0525116318	 0.132432
H	 0.0832342711	-0.1063827625	 2.1161910352	 0.145753
77.558	117.6936	180.3955	291.6866	334.5655	339.7381	418.1778	467.5068	526.5652	544.3792	619.8955	695.3785	804.0645	837.5978	880.5166	960.0402	1025.6707	1066.5197	1143.2273	1152.5444	1195.7708	1316.3499	1365.4043	1428.7964	1455.5932	1473.379	1481.5834	1523.262	1614.9529	1710.7063	1783.1905	3040.6936	3103.5674	3138.9507	3149.9947	3218.9466
CN1C=NC(=O)C(F)=C1	Cn1cnc(=O)c(F)c1	
InChI=1S/C5H5FN2O/c1-8-2-4(6)5(9)7-3-8/h2-3H,1H3	InChI=1S/C5H5FN2O/c1-8-2-4(6)5(9)7-3-8/h2-3H,1H3
