15
gdb 62289	3.45664	1.56969	1.35119	2.3845	69.3	-0.2398	0.0319	0.2717	941.9389	0.111239	-420.513612	-420.506416	-420.505472	-420.544927	29.123	
O	 0.0757855671	 1.3775925997	-0.0308068455	-0.482134
C	 0.0139817462	-0.0178992108	 0.0028448208	 0.237834
C	 0.8406319886	-0.5359926358	 1.082034518	 0.324824
C	 1.5294096548	-0.9844460948	 1.9580637368	-0.431221
C	-1.3681117574	-0.7016380279	-0.0760989117	-0.183384
C	-1.6852513665	-0.7142033547	-1.5734578106	 0.043589
O	-0.6184459754	-0.0333988579	-2.2576077396	-0.303813
C	 0.2838382935	-0.7479575199	-1.3656259081	-0.010424
C	-0.8262447912	-1.7875443805	-1.0055120695	-0.121296
H	-0.2854538799	 1.6166115328	-0.8974470728	 0.286901
H	 2.1381698022	-1.3687909984	 2.7388891739	 0.196441
H	-2.1183006869	-0.7809872073	 0.6990015952	 0.105476
H	-2.6763356922	-0.7071348617	-2.0055700635	 0.122214
H	 1.2838406416	-0.8959473158	-1.7644795334	 0.102725
H	-0.8740511645	-2.8652304068	-0.9819590498	 0.112269
139.7757	145.1799	255.8299	327.5303	469.3266	505.1819	516.1191	524.9732	614.2014	627.5164	666.4208	676.5414	780.0205	785.7239	815.4612	837.4076	871.2332	928.5657	951.8861	969.1889	1016.8536	1027.2092	1058.5149	1084.3819	1102.7335	1148.6873	1176.1922	1189.9573	1225.1078	1302.8223	1358.3706	1415.1499	2244.1701	3164.7094	3212.578	3219.5471	3241.2597	3501.7291	3730.1288
OC1(C#C)C2C3OC1C23	O[C@@]1(C#C)[C@H]2[C@H]3O[C@@H]1[C@@H]23	
InChI=1S/C7H6O2/c1-2-7(8)4-3-5(4)9-6(3)7/h1,3-6,8H	InChI=1S/C7H6O2/c1-2-7(8)4-3-5(4)9-6(3)7/h1,3-6,8H/t3-,4+,5-,6+,7-/m0/s1
