17
gdb 105664	1.99954	1.45444	1.22047	2.9634	70.6	-0.2492	0.0136	0.2628	1121.2029	0.13326	-458.891786	-458.882411	-458.881466	-458.926015	34.449	
O	-0.0219606399	 1.2785123627	-0.5157616583	-0.421783
C	-0.0405592079	-0.0462621366	-0.0352073419	-0.082119
C	-1.4899572471	-0.523919119	 0.138465362	 0.110913
O	-2.1790676864	-0.3557002243	-1.1443431429	-0.321743
C	-2.1942274048	-1.782355292	-1.3833416893	-0.09204
C	-1.702705265	-2.0787733505	 0.0378564118	 0.010066
O	-0.5794673252	-2.9144469929	 0.0847404673	-0.41384
C	-2.1806499581	 0.1481519026	 1.224572946	 0.313842
C	-2.7490666114	 0.6524690508	 2.1562290565	-0.435212
H	-0.6212748564	 1.2902229753	-1.2734196975	 0.292557
H	 0.47654283	-0.7400958664	-0.7123083711	 0.100248
H	 0.4829247507	-0.0555884783	 0.925488149	 0.110094
H	-3.1928115271	-2.1391545796	-1.6518155129	 0.117502
H	-1.4721390156	-2.0867564369	-2.1501177788	 0.117219
H	-2.4960697152	-2.4160025725	 0.7123453568	 0.097817
H	-0.4085752131	-3.154611059	 1.0008315546	 0.295949
H	-3.2470724177	 1.1216888564	 2.9687167885	 0.200529
76.0644	99.7331	146.7326	176.6697	185.0918	291.309	301.581	371.7077	418.7841	469.9655	493.938	535.182	591.798	622.5081	669.9792	671.7861	773.0839	897.5197	941.2889	999.687	1015.2536	1027.1245	1082.9342	1129.9003	1135.4434	1158.7286	1185.5475	1239.7002	1255.8939	1313.7505	1331.3342	1378.9875	1431.0056	1447.822	1501.5655	1516.4136	2231.9637	3012.2639	3033.6294	3053.931	3088.2897	3093.3555	3499.9661	3770.5656	3824.6791
OCC1(OCC1O)C#C	OC[C@]1(OC[C@H]1O)C#C	
InChI=1S/C6H8O3/c1-2-6(4-7)5(8)3-9-6/h1,5,7-8H,3-4H2	InChI=1S/C6H8O3/c1-2-6(4-7)5(8)3-9-6/h1,5,7-8H,3-4H2/t5-,6-/m1/s1
