20
gdb 80767	3.44955	0.95487	0.86839	3.1467	80.44	-0.2155	-0.0219	0.1936	1388.2885	0.169262	-403.102683	-403.093571	-403.092627	-403.137385	33.412	
C	 0.0612728966	 1.5217780674	-0.6508220572	-0.424916
C	 0.2031796008	 0.0686459448	-0.251550207	-0.000428
C	 1.4492314005	-0.7714277918	-0.4093040496	-0.110075
C	 2.7023741808	-0.0002077863	 0.0227989512	-0.194584
N	 2.1196624416	 0.1736194185	 1.3792332292	-0.083881
C	 2.1360069323	 1.4477538821	 2.0629546387	-0.244646
C	 3.4361819879	 1.6289311137	 2.8349029872	 0.159803
O	 3.9818144779	 2.6856930001	 3.0154930003	-0.238843
C	 0.8813335232	-0.4853119464	 0.9797620724	-0.036593
H	 0.9878211547	 2.0852274586	-0.5237556689	 0.124098
H	-0.2241417778	 1.6005191848	-1.7057160412	 0.119296
H	-0.7133947059	 2.0206759488	-0.0585939208	 0.119831
H	-0.6836781018	-0.5225310905	-0.4806806844	 0.089392
H	 1.4646989854	-1.7073329124	-0.9512483746	 0.094824
H	 3.6149121648	-0.6050845547	 0.040153742	 0.111591
H	 2.9119695347	 0.9325431816	-0.5187120381	 0.10116
H	 1.9824397523	 2.3357397295	 1.4310908783	 0.11156
H	 1.3295652967	 1.441166073	 2.8110430053	 0.129878
H	 3.8453412688	 0.6725401364	 3.2333392187	 0.080382
H	 0.3743619965	-1.1467559571	 1.6761808686	 0.092151
51.6014	75.677	116.2414	190.3363	222.8153	243.764	331.2544	355.6015	434.798	475.8308	624.7806	683.1419	720.6864	771.1285	805.2059	865.5566	868.4547	961.7006	983.1149	1016.0084	1020.4782	1055.8354	1061.3708	1078.7549	1104.1861	1134.5159	1154.8137	1160.1658	1210.4535	1243.623	1262.1809	1276.2049	1312.8322	1333.1918	1358.3921	1400.5778	1414.8931	1438.6842	1446.5759	1493.9727	1497.9935	1516.5046	1838.155	2880.0007	2984.753	3006.4442	3035.2163	3036.1653	3062.3411	3090.4659	3106.875	3130.8401	3149.0076	3203.3107
CC1C2CN(CC=O)C12	C[C@H]1[C@H]2CN(CC=O)[C@@H]12	
InChI=1S/C7H11NO/c1-5-6-4-8(2-3-9)7(5)6/h3,5-7H,2,4H2,1H3	InChI=1S/C7H11NO/c1-5-6-4-8(2-3-9)7(5)6/h3,5-7H,2,4H2,1H3/t5-,6+,7-/m0/s1
