19
gdb 121783	2.75116	0.75195	0.6129	1.597	83.73	-0.2616	0.0336	0.2952	1776.7873	0.155283	-385.811544	-385.800791	-385.799847	-385.84809	38.233	
O	-0.0345011723	 1.4550640039	-0.0095530518	-0.420407
C	 0.0487359967	 0.0384122072	 0.0008294925	-0.079637
C	-1.3718506204	-0.5109413693	 0.030234893	-0.176137
C	-1.4062529424	-2.0394743065	 0.0269531242	-0.190492
C	-2.8511699552	-2.6161321618	 0.0704859453	-0.354167
C	-2.837055844	-4.0724057547	-0.1034171573	 0.320335
C	-2.7952914824	-5.2621433969	-0.2616868141	-0.433085
C	-3.5542902191	-2.2371631445	 1.3013819054	 0.351973
C	-4.1158523318	-1.9132213646	 2.3124981155	-0.46867
H	 0.8594405112	 1.8089986335	-0.0186600118	 0.285921
H	 0.5767694794	-0.3366742482	-0.8916853266	 0.083889
H	 0.6042978318	-0.323033953	 0.8818617679	 0.086894
H	-1.8801222808	-0.1240341091	 0.9195594724	 0.125362
H	-1.9131427773	-0.1183253778	-0.8397775291	 0.105097
H	-0.9259844902	-2.4314228173	-0.8764345006	 0.110448
H	-0.8525020793	-2.4406715318	 0.8827286086	 0.117294
H	-3.401475572	-2.1813319667	-0.7774725355	 0.137107
H	-2.7719671559	-6.3151921372	-0.3964114563	 0.197343
H	-4.6208831058	-1.6331855953	 3.2037495983	 0.200934
59.529	74.6606	98.6742	127.2417	141.9181	209.1591	214.5774	263.4267	330.2644	343.8307	410.7238	504.7802	564.5872	579.9045	632.4855	635.9139	645.6058	648.5503	757.8598	822.2847	903.2013	993.879	1016.7934	1051.952	1059.3841	1089.1283	1123.5566	1204.9512	1230.5739	1277.1899	1290.5497	1316.1837	1325.335	1338.5449	1386.4868	1464.8465	1485.9405	1501.757	1529.3048	2238.6552	2244.6781	2956.9345	2982.2923	2993.6192	3032.9461	3042.9761	3076.5469	3097.7517	3503.6418	3504.5413	3831.314
OCCCC(C#C)C#C	OCCCC(C#C)C#C	
InChI=1S/C8H10O/c1-3-8(4-2)6-5-7-9/h1-2,8-9H,5-7H2	InChI=1S/C8H10O/c1-3-8(4-2)6-5-7-9/h1-2,8-9H,5-7H2
