20
gdb 53681	6.1717	0.52603	0.50878	3.3897	86.45	-0.2379	0.0322	0.27	2203.9731	0.167976	-403.16778	-403.156181	-403.155237	-403.208874	38.076	
C	 0.1010205204	 1.4095819253	 0.121149443	-0.49658
C	-0.0251049258	-0.0410217821	 0.1320114693	 0.091744
C	-0.11894423	-1.2413752695	 0.1545098097	 0.037469
C	-0.2746135371	-2.6903524363	 0.1521540808	-0.343594
C	-1.5496192542	-3.1385268838	-0.5992423854	-0.154913
N	-1.6961547121	-4.5820186479	-0.6498323392	-0.305795
C	-2.2285293353	-5.2883164908	 0.3920365686	 0.401592
C	-2.2763425377	-6.7969799845	 0.2023879591	-0.482028
O	-2.6397813726	-4.7459082444	 1.4024383814	-0.374206
H	 0.1294928958	 1.8147646169	 1.1387575705	 0.1483
H	 1.0180105436	 1.727691884	-0.387409374	 0.145061
H	-0.7430261874	 1.878707971	-0.39669535	 0.146345
H	 0.6012518401	-3.1650819309	-0.3094596364	 0.114336
H	-0.3376064662	-3.0716952182	 1.1776471523	 0.15245
H	-2.4243166424	-2.7293604453	-0.0893279653	 0.148738
H	-1.5359082743	-2.7517508392	-1.6218251522	 0.111047
H	-1.3128361301	-5.0807050376	-1.4348089146	 0.244293
H	-1.9745872095	-7.1268896581	-0.7952293277	 0.109544
H	-1.6232859866	-7.2673353553	 0.9430924838	 0.15196
H	-3.2941438786	-7.1411169532	 0.4006060564	 0.154238
12.5857	28.6814	44.4914	47.5544	64.3963	117.5274	212.824	279.56	285.4884	337.1568	389.093	403.8272	442.0226	500.2054	620.6745	646.733	753.9028	790.8398	889.3713	991.0892	1016.0305	1050.536	1051.957	1054.3591	1087.2818	1112.906	1168.5031	1228.8885	1271.5635	1306.5603	1335.5175	1394.1733	1400.8643	1415.4204	1466.7779	1470.3158	1478.8361	1479.5363	1481.0214	1485.6896	1534.3612	1777.3117	2373.4296	3018.9071	3025.1594	3048.733	3061.9327	3071.1369	3084.7485	3085.6198	3122.8159	3126.4785	3133.2937	3654.3345	12.6259	28.6737	44.4916	47.5534	64.3962	117.5273	212.8236	279.5601	285.4886	337.1568	389.0937	403.8279	442.0228	500.2059	620.6745	646.7331	753.9028	790.84	889.3713	991.0895	1016.0305	1050.5359	1051.9568	1054.3585	1087.2822	1112.9062	1168.5033	1228.8893	1271.564	1306.561	1335.5185	1394.1737	1400.8649	1415.4196	1466.7788	1470.3164	1478.8347	1479.535	1481.0227	1485.6901	1534.3615	1777.3125	2373.4296	3018.9071	3025.1594	3048.733	3061.9326	3071.1368	3084.7485	3085.6198	3122.8159	3126.4784	3133.2937	3654.3344
CC#CCCNC(C)=O	CC#CCCNC(=O)C	
InChI=1S/C7H11NO/c1-3-4-5-6-8-7(2)9/h5-6H2,1-2H3,(H,8,9)	InChI=1S/C7H11NO/c1-3-4-5-6-8-7(2)9/h5-6H2,1-2H3,(H,8,9)
