19
gdb 55738	4.03654	1.1041	1.00595	2.9301	77.2	-0.2389	0.0237	0.2626	1242.5567	0.159588	-419.140605	-419.132229	-419.131285	-419.174225	31.583	
C	-0.0285776308	 1.4504461664	-0.157612135	-0.466761
C	 0.0607017293	-0.0299272275	 0.1088643394	 0.366362
N	 0.2301960422	-0.6281735957	 1.2149718088	-0.513988
O	-0.0698869785	-0.7146062935	-1.0539847601	-0.291086
C	-0.0135315231	-2.1196653477	-1.0134482569	 0.405817
C	-0.9410819984	-3.1380148557	-0.3234265172	-0.216073
N	 0.041856375	-4.0208266974	-1.1142276258	-0.145502
C	-0.1474545763	-3.0024561952	-2.2552139724	-0.226425
C	 1.1325638471	-3.0628738644	-0.6007884476	-0.216069
H	 0.0743542297	 2.0219964403	 0.7660938951	 0.127124
H	 0.7554876055	 1.7541045274	-0.8579181418	 0.148576
H	-0.9886788821	 1.6908767279	-0.6243363132	 0.148579
H	 0.3071556958	 0.045540435	 1.9736971154	 0.221699
H	-0.8614721071	-3.2468517132	 0.7573563125	 0.124675
H	-1.9720046274	-3.2160810034	-0.6777766328	 0.09972
H	-1.1242475458	-3.0681351126	-2.7404314344	 0.104478
H	 0.670066345	-3.0031664774	-2.9801617234	 0.104499
H	 2.0371719849	-3.0708319853	-1.2140446852	 0.099723
H	 1.3473477949	-3.166814898	 0.4619107446	 0.124653
67.2	85.7325	127.0933	157.3504	340.7568	350.1248	371.1225	547.0661	570.0659	584.4799	596.526	703.8404	783.9023	791.2755	857.1968	870.3719	925.1696	947.3868	970.2491	1019.6202	1022.5372	1029.1234	1038.8055	1068.5693	1099.8649	1163.1114	1165.5857	1181.3177	1187.1821	1189.1441	1201.9492	1226.7195	1295.1074	1373.0317	1414.8984	1471.1544	1481.2865	1509.8778	1511.1166	1566.1484	1727.3932	3048.6228	3058.4153	3067.1888	3074.3796	3112.6751	3129.0897	3143.5141	3155.0804	3159.5298	3512.102
CC(=N)OC12CN(C1)C2	C[C]([NH])O[C@@]12CN(C1)C2	
InChI=1S/C6H10N2O/c1-5(7)9-6-2-8(3-6)4-6/h7H,2-4H2,1H3	InChI=1S/C6H10N2O/c1-5(7)9-6-2-8(3-6)4-6/h7H,2-4H2,1H3
