17
gdb 29910	3.35626	1.29778	0.94383	2.936	87.18	-0.181	0.0283	0.2093	1211.4405	0.135942	-380.876604	-380.867479	-380.866535	-380.910115	34.031	
C	-0.0483655929	 1.4536298746	 0.0287973957	-0.348019
N	-0.003609306	 0.0079700346	-0.0068963316	-0.017898
C	 0.0274631741	-0.77746971	-1.14859401	-0.101278
C	 0.0391449972	-2.0906178383	-0.7711879145	-0.295973
C	 0.0370030738	-2.1275888962	 0.6631306498	 0.119696
C	 0.0507127127	-3.2455976436	 1.5226057425	 0.205426
C	 0.0645663985	-4.1830092737	 2.2831898881	-0.450959
C	 0.0134985294	-0.8039919998	 1.0930514815	 0.183632
N	-0.0825758382	-0.2776389578	 2.3863106495	-0.623606
H	 0.9541498197	 1.8966312285	 0.0799800102	 0.1317
H	-0.5440490202	 1.8228273888	-0.8715117896	 0.142226
H	-0.618221281	 1.7723765285	 0.9048779914	 0.157805
H	 0.0399003687	-0.3167586018	-2.1228966219	 0.116318
H	 0.0527044439	-2.9477078809	-1.4251947702	 0.101232
H	 0.0730281179	-5.0172758577	 2.9388187461	 0.175728
H	-0.1914464238	-1.035576763	 3.0514151644	 0.257793
H	 0.7287799863	 0.2695128378	 2.6582808285	 0.246175
107.1276	119.6775	130.1394	204.3661	240.4839	269.3543	291.5551	404.6483	444.0581	495.2031	522.0408	573.082	608.9893	660.1165	660.4657	715.8389	721.9958	761.1719	801.4964	836.7505	1000.6655	1050.6885	1106.7896	1151.8477	1195.9702	1217.6442	1270.0211	1372.4108	1385.4196	1446.6946	1488.6169	1508.6473	1526.926	1550.469	1585.2649	1657.7909	2215.7262	3022.6742	3097.8155	3137.7406	3255.3491	3275.1345	3492.5581	3505.0131	3585.1989
CN1C=CC(C#C)=C1N	Cn1ccc(C#C)c1N	
InChI=1S/C7H8N2/c1-3-6-4-5-9(2)7(6)8/h1,4-5H,8H2,2H3	InChI=1S/C7H8N2/c1-3-6-4-5-9(2)7(6)8/h1,4-5H,8H2,2H3
