23
gdb 57603	3.29591	0.96248	0.91203	0.6348	91.25	-0.2557	0.0536	0.3093	1414.3771	0.202953	-351.115659	-351.105231	-351.104286	-351.150685	39.973	
C	 0.20503282	 1.582621821	 0.2772842608	-0.432473
C	 0.1308224114	 0.0558863073	 0.1179870189	 0.234833
C	 0.7584482359	-0.6160806793	 1.3530742565	-0.408337
C	-1.3620167753	-0.380376486	-0.019741524	-0.369413
C	-2.2128853979	-0.0327615554	 1.1120075859	 0.309712
C	-2.9104919889	 0.258089626	 2.0476986304	-0.451936
C	 0.8518535535	-0.4602601429	-1.1304346052	 0.035094
C	 0.8260599964	 0.2299049843	-2.4717694518	-0.287161
C	 2.11424085	 0.1454489191	-1.6878199027	-0.293647
H	 1.2359044846	 1.9198730357	 0.4186497073	 0.113898
H	-0.2117388996	 2.1084818133	-0.587643342	 0.112061
H	-0.3691121507	 1.8927325166	 1.1544933897	 0.131136
H	 0.2378977838	-0.3218308698	 2.268965037	 0.124348
H	 0.7098053321	-1.7081160563	 1.2753544145	 0.10548
H	 1.8118562134	-0.3346037738	 1.4478561877	 0.112742
H	-1.7732991752	 0.0670894169	-0.9332244354	 0.128095
H	-1.3971079153	-1.4672764942	-0.1714838679	 0.121425
H	-3.533699416	 0.5095119736	 2.8696613419	 0.191325
H	 0.8178575761	-1.5468576954	-1.1906534222	 0.077547
H	 0.717338077	-0.3820694312	-3.3605802956	 0.109649
H	 0.3528859441	 1.2024489101	-2.5487192581	 0.112962
H	 2.4895730598	 1.0623826258	-1.2478450395	 0.113354
H	 2.8921551607	-0.5247172154	-2.037000956	 0.109305
62.4095	79.416	134.1688	211.1335	235.5315	264.959	275.6752	308.439	347.4338	359.307	379.9352	416.1666	470.0713	557.6028	610.9138	634.6529	716.6519	788.7135	824.4298	835.8428	894.7237	917.6359	945.5673	952.6589	982.7244	986.4036	1030.2614	1056.991	1078.7937	1092.8852	1148.6008	1161.4299	1198.635	1203.0673	1230.8436	1253.6795	1296.0827	1340.942	1392.5956	1401.2721	1428.3058	1464.1367	1468.0276	1484.3688	1493.7147	1508.4193	1510.3033	1514.3024	2231.8912	3016.5644	3029.9851	3041.461	3052.1089	3096.1435	3107.2427	3112.3283	3113.7915	3117.856	3134.9008	3139.4844	3210.5144	3225.2105	3505.9015
CC(C)(CC#C)C1CC1	CC(C)(CC#C)C1CC1	
InChI=1S/C9H14/c1-4-7-9(2,3)8-5-6-8/h1,8H,5-7H2,2-3H3	InChI=1S/C9H14/c1-4-7-9(2,3)8-5-6-8/h1,8H,5-7H2,2-3H3
