20
gdb 106643	2.67094	1.30022	1.04628	2.9375	81.77	-0.2523	0.026	0.2783	1242.3952	0.16948	-403.139182	-403.129803	-403.128859	-403.173344	34.927	
C	-0.1377455813	 1.5100625033	 0.0992422892	-0.3768
C	 0.1377195902	 0.0052750275	-0.0315292259	-0.29154
C	 0.7529501951	-0.5744123463	 1.1999648699	 0.442343
C	 0.1094512535	-1.0374494615	 2.4615162774	-0.37447
C	 1.0490211265	-1.9817631519	 1.6897781016	 0.095518
C	 0.6763739689	-3.3541742349	 1.2149908634	-0.490846
C	 2.4348497002	-1.4578667388	 1.8874555301	 0.405474
N	 3.5390909419	-1.9727115671	 2.1835932316	-0.561473
O	 2.116201525	-0.1491003864	 1.5305482607	-0.316139
H	 0.7879440328	 2.055139846	 0.3043081561	 0.138989
H	-0.5695800166	 1.906755554	-0.8239572109	 0.11585
H	-0.8362083838	 1.7125162656	 0.9171579689	 0.121481
H	-0.7951294858	-0.5340502116	-0.2341097439	 0.108639
H	 0.8045921705	-0.1806110287	-0.8817445895	 0.11549
H	 0.4075481574	-0.6113654978	 3.4145730054	 0.126127
H	-0.9383090752	-1.3160270041	 2.3864299687	 0.120255
H	-0.3731071642	-3.3925268537	 0.9070813209	 0.118171
H	 1.2953232298	-3.659816577	 0.3660953703	 0.134551
H	 0.8176821953	-4.0914406726	 2.012056282	 0.14119
H	 4.2867794598	-1.2768724741	 2.1665810039	 0.22719
76.8898	117.0682	142.1801	160.5965	209.6108	241.3829	268.7066	358.3635	397.3017	463.6688	513.1669	623.915	660.3198	719.9721	744.9652	785.3152	852.7671	869.6346	893.0198	947.8695	977.1966	989.6035	1001.2562	1018.0888	1067.5141	1095.8604	1107.4283	1169.6444	1188.1969	1232.2632	1305.1468	1344.6194	1374.4638	1407.9261	1413.3904	1431.4549	1471.5634	1482.3482	1496.138	1497.9596	1503.7293	1514.3912	1827.2091	3032.372	3036.8596	3042.662	3070.2668	3101.8595	3109.4521	3113.9802	3116.6556	3121.0905	3207.8033	3475.8188
CCC12CC1(C)C(=N)O2	CC[C@@]12C[C@]1(C)[C]([NH])O2	
InChI=1S/C7H11NO/c1-3-7-4-6(7,2)5(8)9-7/h8H,3-4H2,1-2H3	InChI=1S/C7H11NO/c1-3-7-4-6(7,2)5(8)9-7/h8H,3-4H2,1-2H3/t6-,7-/m1/s1
