13
gdb 130017	5.48234	1.35057	1.08543	4.0868	67.38	-0.2131	-0.0061	0.2069	1008.3362	0.093905	-445.117542	-445.110728	-445.109784	-445.148426	26.287	
N	 0.0397920297	 1.326970748	 0.139236058	-0.591042
C	-0.0207063302	-0.0440631462	 0.0305478293	 0.403659
N	-1.1294391385	-0.7460775372	 0.0159142592	-0.397066
C	-0.6656723199	-2.049518501	 0.0037083274	 0.344645
N	-1.1402947607	-3.292157713	-0.0204428761	-0.325142
N	-0.0040349935	-4.0097539733	-0.0435689627	-0.115277
N	 1.1760680672	-3.3455350879	-0.0341433146	-0.345447
C	 0.7366576401	-2.1015368297	-0.0038121586	 0.382226
N	 1.1633799506	-0.7873626796	-0.0155964407	-0.450657
H	 0.7411418647	 1.7773826582	-0.4326632229	 0.257727
H	-0.8728125197	 1.7466764945	 0.0253601223	 0.273679
H	-0.0247330262	-5.0147197133	-0.0313612839	 0.289658
H	 2.0778639465	-0.4348273196	 0.2095181634	 0.273037
165.3048	270.5759	309.541	324.7862	352.1143	370.5439	412.4107	570.7564	596.8016	652.2931	665.2498	749.3827	787.0648	800.0939	886.3256	970.377	981.4158	1115.0399	1145.8703	1171.7454	1232.4098	1277.0891	1433.9548	1467.349	1473.338	1536.6858	1589.7368	1651.6519	1677.4701	3556.0798	3658.6375	3671.3608	3696.0182
NC1=NC2=NNN=C2N1	Nc1nc2n[nH]nc2[nH]1	
InChI=1S/C3H4N6/c4-3-5-1-2(6-3)8-9-7-1/h(H4,4,5,6,7,8,9)	InChI=1S/C3H4N6/c4-3-5-1-2(6-3)8-9-7-1/h(H4,4,5,6,7,8,9)
