18
gdb 93336	2.31316	1.59028	1.06632	6.1324	73.65	-0.2449	-0.0299	0.2151	1142.7254	0.147806	-439.157667	-439.14905	-439.148106	-439.191181	31.572	
C	 0.4899250274	 1.5531873046	-0.1538101913	-0.388755
C	-0.0107429772	 0.1217180635	 0.0643781843	 0.009941
C	 0.3055764488	-0.8249864034	-1.1162663556	-0.236659
C	 1.6557087683	-1.4495780838	-0.744641135	-0.338641
C	 1.6787589283	-1.4387591687	 0.7833756508	 0.424448
O	 2.4062075846	-2.0637512563	 1.503824515	-0.318981
N	 0.6717058984	-0.5338669942	 1.1956792505	-0.118556
C	 0.3150201437	-0.2519929068	 2.5099758056	 0.15656
O	 0.8211546296	-0.7016655047	 3.5017668202	-0.268854
H	 1.5587171015	 1.5666904617	-0.3906069903	 0.129265
H	-0.052012337	 2.0207522437	-0.9817591534	 0.126598
H	 0.3367815794	 2.1651449103	 0.7401531717	 0.12971
H	-1.0863992869	 0.1454779998	 0.2665172744	 0.099022
H	-0.4610168547	-1.6026871787	-1.1806681407	 0.120301
H	 0.3184070305	-0.2897795206	-2.0677964242	 0.114847
H	 1.8029927674	-2.4664464572	-1.1111849079	 0.141114
H	 2.5035426008	-0.8519124196	-1.0988714042	 0.139367
H	-0.5366888728	 0.4595287905	 2.5362125302	 0.079272
72.1274	134.9275	158.4825	213.5891	216.9108	248.7127	325.9822	434.4256	482.621	491.5375	560.6783	658.145	712.6095	751.2152	808.4788	897.9519	961.3384	980.7068	1030.9639	1036.4472	1088.9319	1100.1479	1123.7771	1183.9481	1199.8507	1230.661	1271.961	1307.4728	1338.0985	1368.2204	1393.3011	1412.6054	1457.6295	1468.061	1490.4909	1496.3879	1501.5673	1803.0842	1879.5259	2910.165	3037.2194	3049.2008	3055.1884	3066.0284	3111.219	3113.2192	3115.7104	3127.6383
CC1CCC(=O)N1C=O	C[C@H]1CCC(=O)N1C=O	
InChI=1S/C6H9NO2/c1-5-2-3-6(9)7(5)4-8/h4-5H,2-3H2,1H3	InChI=1S/C6H9NO2/c1-5-2-3-6(9)7(5)4-8/h4-5H,2-3H2,1H3/t5-/m0/s1
