13
gdb 77807	2.48435	1.52513	1.12464	5.7365	61.03	-0.2766	-0.0599	0.2167	1040.5144	0.086688	-493.686316	-493.678417	-493.677473	-493.719129	28.327	
O	-0.1252723181	 1.4315985939	 0.0197141618	-0.394922
C	-0.0507466599	 0.0541432774	 0.0294307462	 0.040871
C	-0.3862732697	-0.7995952202	 1.2420831997	-0.394652
C	-1.5807187648	-0.1782664232	 1.9353034538	 0.474556
O	-1.8856380672	 0.1213272111	 3.0393093226	-0.310817
O	-2.3395857354	-0.0680371398	 0.7814281039	-0.256113
C	-1.3228270643	-0.735765681	 0.0129629791	 0.343131
C	-1.6841101949	-1.7956662156	-0.9483630347	 0.077138
O	-2.8061063226	-2.1660209882	-1.1684113286	-0.241556
H	 0.5732440001	 1.7854765874	 0.5816677261	 0.306299
H	 0.7446588167	-0.3857810795	-0.5777765335	 0.122724
H	 0.2406654163	-1.5971346312	 1.6155865902	 0.145484
H	-0.7981158463	-2.2277538513	-1.4653035167	 0.087859
90.5959	133.4387	181.0842	229.1171	243.3879	298.3588	411.5456	470.2554	486.0838	640.356	681.85	712.6692	789.2131	838.1467	912.9845	946.3512	967.222	1016.9923	1058.7914	1068.0038	1125.5033	1213.7574	1248.4797	1303.7694	1309.5562	1422.1324	1471.2841	1826.4779	1958.8639	2883.0922	3081.4629	3224.2941	3806.5087
OC1C2C(=O)OC12C=O	O[C@H]1[C@H]2C(=O)O[C@@]12C=O	
InChI=1S/C5H4O4/c6-1-5-2(3(5)7)4(8)9-5/h1-3,7H	InChI=1S/C5H4O4/c6-1-5-2(3(5)7)4(8)9-5/h1-3,7H/t2-,3-,5+/m0/s1
