19
gdb 108723	3.12301	1.17521	0.96308	4.2109	83.64	-0.2322	-0.0434	0.1888	1272.5457	0.1599	-385.921079	-385.912742	-385.911797	-385.954399	31.733	
C	-0.2069551075	 1.5184363227	-0.0578421744	-0.377781
C	 0.0830818296	 0.0063339972	-0.0004654205	-0.291796
C	 0.8078463414	-0.4937017757	-1.2122596732	 0.347593
C	 2.0613955499	-0.9797268174	-1.272553405	-0.338429
C	 2.4244943446	-1.3489050795	-2.6645726655	 0.411456
O	 3.4988047158	-1.7305092359	-3.0705110117	-0.344735
C	 1.1775574513	-1.1254153713	-3.4993579352	-0.157671
C	-0.0376437539	-1.9484242014	-3.105417983	-0.281237
C	 0.1517606308	-0.5466649139	-2.5633599598	-0.137692
H	 0.7225408281	 2.0910786497	-0.1270323267	 0.129996
H	-0.8260664659	 1.7761454993	-0.9224803467	 0.123554
H	-0.7399635514	 1.8391924402	 0.841702712	 0.122086
H	 0.6691411117	-0.2205115863	 0.895825944	 0.112416
H	-0.8690090672	-0.5335399608	 0.0924036636	 0.115525
H	 2.7397524522	-1.1163179971	-0.4397948434	 0.107101
H	 1.2866728285	-0.8178075658	-4.5310839478	 0.109349
H	-0.7887336624	-2.0989790226	-3.8743282173	 0.122867
H	 0.0943763859	-2.7821954109	-2.4239264245	 0.127667
H	-0.5372086514	 0.2321124695	-2.8679273849	 0.099732
58.8027	125.751	188.6382	202.0855	264.0918	298.7418	355.1738	473.0068	548.8795	602.0958	674.8628	750.4885	772.3506	808.1615	821.9678	844.6887	885.4576	912.0674	949.5436	961.8506	996.0575	1053.9848	1067.5254	1075.6326	1092.7458	1095.9522	1161.0586	1177.3674	1193.1849	1265.9288	1302.5406	1323.9371	1349.469	1375.3179	1409.6061	1478.9089	1480.6403	1498.8721	1506.6268	1657.8042	1809.3173	3019.1863	3041.7071	3075.2099	3114.0942	3118.0347	3126.7905	3181.9547	3204.639	3215.5222	3219.6635
CCC1=CC(=O)C2CC12	CCC1=CC(=O)[C@H]2C[C@@H]12	
InChI=1S/C8H10O/c1-2-5-3-8(9)7-4-6(5)7/h3,6-7H,2,4H2,1H3	InChI=1S/C8H10O/c1-2-5-3-8(9)7-4-6(5)7/h3,6-7H,2,4H2,1H3/t6-,7-/m0/s1
