17
gdb 16145	3.92907	1.70449	1.43166	3.3385	68.65	-0.2446	-0.0221	0.2225	902.2649	0.14389	-363.868097	-363.86107	-363.860126	-363.899298	26.969	
O	-0.4798979019	 0.6714904161	 0.7161289319	-0.268807
C	 0.2183054514	 0.9824494983	-0.2182624224	 0.108959
C	 1.3849219712	 1.8941289255	-0.1195158053	 0.229581
C	 1.8901440485	 2.3534789076	 1.2376159283	-0.285035
C	 2.7602993794	 3.596130929	 0.9378858322	-0.246675
C	 2.1682684505	 4.2047551229	-0.3546878664	-0.225297
C	 1.5699507639	 3.0242198321	-1.1049215527	-0.046918
N	 2.3405083207	 1.797979033	-1.2457046105	-0.367999
H	 0.0319824203	 0.6070550759	-1.2482909503	 0.081307
H	 1.0214376214	 2.6058231643	 1.8541712684	 0.128726
H	 2.4393761966	 1.5707309525	 1.7704933626	 0.110954
H	 2.7686548717	 4.3083233833	 1.7660133456	 0.112592
H	 3.8030507873	 3.3028880031	 0.7770113044	 0.106359
H	 1.3638906414	 4.9125603561	-0.1225069031	 0.114998
H	 2.912108093	 4.7474106207	-0.9481336219	 0.110044
H	 0.8589986726	 3.2101503957	-1.9052591077	 0.101153
H	 3.296066462	 1.9059775442	-0.9135665032	 0.236057
107.6192	198.4622	221.9852	251.3473	361.9438	425.1649	488.1559	632.6585	640.7692	740.2492	782.3155	841.0911	873.182	890.0767	935.1757	984.1434	1011.1005	1034.3774	1049.8592	1061.6063	1118.2078	1146.6501	1182.9894	1214.9187	1249.2225	1291.7205	1302.7335	1321.9576	1339.4984	1355.0088	1401.2605	1431.6662	1487.5209	1495.8383	1512.6199	1813.8993	2899.778	3038.2738	3048.3627	3054.5002	3077.738	3090.4027	3107.7968	3150.521	3495.9099
O=CC12CCCC1N2	O=C[C@]12CCC[C@H]1N2	
InChI=1S/C6H9NO/c8-4-6-3-1-2-5(6)7-6/h4-5,7H,1-3H2	InChI=1S/C6H9NO/c8-4-6-3-1-2-5(6)7-6/h4-5,7H,1-3H2/t5-,6-/m1/s1
