18
gdb 13522	3.31159	1.58175	1.31205	3.5624	68.99	-0.2238	0.0333	0.2571	994.7132	0.154172	-381.134961	-381.126504	-381.12556	-381.168063	30.906	
C	-0.2482062441	 0.7695451521	-0.775939465	-0.330613
N	-0.0875335098	-0.3502289934	 0.1302326723	-0.081942
C	-1.1997118053	-0.682776605	 1.0473390459	-0.162716
C	-0.1629467792	-0.9998434913	 2.1496002314	-0.244509
C	 0.8453995769	-0.2057840342	 1.2698142598	-0.046752
C	 2.2417014923	-0.7957744664	 1.1044160966	 0.377303
N	 2.3590045826	-1.6111660826	 0.0246582988	-0.519095
O	 3.133951754	-0.5625135131	 1.8982141812	-0.375694
H	 0.694202261	 0.9575486822	-1.3006171002	 0.128
H	-1.0117884317	 0.5347240783	-1.5248666469	 0.122791
H	-0.5472066202	 1.6999282908	-0.2598459868	 0.099895
H	-1.8157473464	 0.1945055411	 1.3005804489	 0.091448
H	-1.8573658372	-1.486540747	 0.7009328678	 0.104332
H	-0.3531773341	-0.6092386028	 3.1479695965	 0.119708
H	 0.0860377094	-2.0606557337	 2.211566601	 0.11867
H	 0.956983546	 0.8299049129	 1.621374231	 0.083253
H	 1.5471906584	-1.7688137504	-0.5514477155	 0.258598
H	 3.2239231774	-2.0970315875	-0.1401179569	 0.257323
58.8889	121.5052	178.2617	224.7665	235.617	295.0225	324.8701	372.1799	473.9297	544.2209	637.2816	669.1345	742.9819	797.8355	829.4174	947.9066	952.434	998.2378	1015.4325	1074.6217	1097.8455	1134.1363	1173.1551	1199.3671	1216.5714	1245.5751	1253.0243	1280.6557	1326.3588	1340.047	1368.3408	1449.3272	1487.5729	1489.258	1499.6529	1523.516	1579.5215	1802.3668	2943.8492	2979.9715	3006.5868	3060.8563	3063.6789	3091.3219	3102.7461	3154.5132	3579.6388	3729.7251
CN1CCC1C(N)=O	CN1CC[C@H]1C(=O)N	
InChI=1S/C5H10N2O/c1-7-3-2-4(7)5(6)8/h4H,2-3H2,1H3,(H2,6,8)	InChI=1S/C5H10N2O/c1-7-3-2-4(7)5(6)8/h4H,2-3H2,1H3,(H2,6,8)/t4-/m0/s1
