18
gdb 78611	3.21356	1.47713	1.2251	1.8272	72.07	-0.2445	0.0519	0.2964	1051.8078	0.146649	-438.987334	-438.979196	-438.978252	-439.01948	32.08	
C	-0.1421787374	 1.5759441589	-0.0795758288	-0.422944
C	-0.0230115615	 0.0722577528	 0.0516233849	 0.023245
N	 1.1847901899	-0.5818816783	-0.6458764403	-0.182074
C	 2.0880077968	-0.2491161276	 0.5685285868	-0.109161
C	 2.5564551925	-1.6963476139	 0.6616152439	 0.091547
O	 2.9343758832	-2.0694364576	 1.9735834478	-0.448366
C	 1.06761194	-1.7926286605	 0.3066040066	-0.123028
C	 0.6973059146	-0.573415894	 1.224839503	 0.366846
O	 0.317746223	-0.5390126503	 2.5457725258	-0.471621
H	 0.7718977662	 2.0895656108	 0.2323258406	 0.119048
H	-0.3519580132	 1.8527786252	-1.1176801123	 0.126409
H	-0.9634113776	 1.9453377676	 0.5429687549	 0.128092
H	-0.954361089	-0.4236428692	-0.2494659765	 0.073334
H	 2.6756191737	 0.6674410024	 0.6050688436	 0.086271
H	 3.2715835174	-2.0351866712	-0.0974645847	 0.085119
H	 3.0755877458	-3.0213754142	 1.9906426924	 0.290946
H	 0.4481616983	-2.6496939794	 0.0356479451	 0.07778
H	 0.9980556973	-1.0157765916	 3.0396302771	 0.288558
158.7094	181.5234	189.1257	215.7762	291.0934	333.6126	385.1688	417.5874	480.241	526.0283	577.7986	666.6967	754.2949	770.7746	833.5061	873.1191	903.1206	917.3107	938.2754	957.1104	1048.7439	1064.447	1082.9719	1106.5637	1115.8203	1125.7682	1154.3372	1178.9963	1204.6157	1243.3859	1261.3022	1289.5995	1338.069	1371.794	1408.9707	1422.9588	1443.707	1492.0029	1495.9454	3031.4528	3039.3953	3039.446	3100.2388	3107.6095	3112.7886	3125.9868	3774.0517	3819.4544
CC1N2C3C(O)C2C13O	C[C@H]1N2[C@@H]3[C@@H](O)[C@H]2[C@]13O	
InChI=1S/C6H9NO2/c1-2-6(9)4-3(8)5(6)7(2)4/h2-5,8-9H,1H3	InChI=1S/C6H9NO2/c1-2-6(9)4-3(8)5(6)7(2)4/h2-5,8-9H,1H3/t2-,3-,4-,5+,6+/m1/s1
