18
gdb 8519	4.18974	1.83041	1.59608	1.1197	71.43	-0.2383	0.0825	0.3209	864.1116	0.15355	-347.755139	-347.747924	-347.74698	-347.785815	29.365	
C	 0.017522343	 1.5485748322	 0.0668797106	-0.501929
C	 0.0454443606	 0.0432860476	 0.0654312247	 0.325624
C	-1.2583474512	-0.795323427	 0.244782226	-0.271398
C	-0.3555486344	-1.8857656541	 0.8085651661	-0.134038
C	 0.7373939703	-0.889074831	 1.1538835058	-0.180774
C	 0.9673863001	-1.8387126193	 0.0174234176	 0.40469
O	 1.8582351555	-2.8930310145	 0.0253032725	-0.466135
C	 0.8312749686	-0.7424084311	-1.0333289962	-0.337929
H	 1.029373126	 1.9678310542	 0.0471337244	 0.117486
H	-0.5164936813	 1.9281128687	-0.8128273502	 0.117517
H	-0.4900087843	 1.9365462958	 0.9569700503	 0.115812
H	-1.9059383174	-0.367550082	 1.0172378576	 0.093997
H	-1.8508729101	-1.0028627921	-0.6551875106	 0.082059
H	-0.6198293591	-2.7769833548	 1.3643192568	 0.082333
H	 1.2838684302	-0.6969186818	 2.0656076246	 0.091779
H	 1.4740507507	-3.6181434274	-0.4799472073	 0.283785
H	 0.3088853879	-0.9553823039	-1.9747651976	 0.078663
H	 1.8006352752	-0.2787243794	-1.2404472652	 0.098459
211.036	216.2952	256.376	300.2963	341.5087	386.5147	439.5528	460.8946	569.2028	625.1499	734.4473	750.4545	811.8678	837.952	894.5698	912.9709	953.0326	956.5924	987.6963	1011.7451	1034.9275	1072.5698	1112.123	1128.3738	1145.1222	1181.637	1196.2712	1233.3422	1247.8119	1292.2364	1302.0115	1348.7362	1414.0762	1436.2001	1488.726	1493.2803	1495.2748	1510.6998	3014.1993	3019.3245	3024.5208	3077.4383	3084.4138	3088.9682	3093.5662	3190.9789	3225.5606	3790.0692
CC12CC3C1C3(O)C2	C[C@]12C[C@@H]3[C@H]1[C@]3(O)C2	
InChI=1S/C7H10O/c1-6-2-4-5(6)7(4,8)3-6/h4-5,8H,2-3H2,1H3	InChI=1S/C7H10O/c1-6-2-4-5(6)7(4,8)3-6/h4-5,8H,2-3H2,1H3/t4-,5-,6-,7+/m1/s1
