19
gdb 37932	2.47033	2.34638	1.79237	1.4053	76.44	-0.231	0.0777	0.3087	860.9185	0.163797	-385.874074	-385.867881	-385.866937	-385.904254	26.801	
C	-0.0454004339	 1.5377112533	-0.1171448825	-0.240123
C	 1.403381783	 2.0139424456	 0.0349725005	-0.074804
C	 2.2276514827	 1.7456572831	 1.2800036399	-0.053651
C	 1.6730285894	 1.2268352029	 2.587467768	-0.094173
O	 0.4940515603	 0.451332622	 2.444584054	-0.257893
C	 0.4614425243	-0.4624787933	 1.3856674334	 0.086849
C	-0.0287905262	 0.0177749587	 0.0476772797	-0.093002
C	 1.4247967934	-0.416766441	 0.2210221165	-0.1066
C	 2.3145001225	 0.8012970841	 0.1101031341	-0.072444
H	-0.7240157653	 2.0122385683	 0.5995498146	 0.113369
H	-0.3961479704	 1.795057522	-1.1220820081	 0.098802
H	 1.7000182877	 2.8795851768	-0.5480962012	 0.083323
H	 3.0702228508	 2.4185955998	 1.42015912	 0.083249
H	 2.4584771439	 0.6423131076	 3.0964553768	 0.088487
H	 1.3942253437	 2.0527254952	 3.2509698069	 0.106949
H	 0.1376063949	-1.4437023239	 1.7233659484	 0.090466
H	-0.7490681173	-0.5791411159	-0.5013484243	 0.079203
H	 1.7928567302	-1.3581209825	-0.1699967699	 0.082708
H	 3.2274531163	 0.7163647571	-0.467294007	 0.079285
187.0077	238.402	372.6102	459.9314	515.7696	570.1802	681.3775	697.7534	715.9352	752.3049	782.5262	800.7086	811.8612	875.717	915.2474	944.1216	959.5208	1003.0865	1030.9217	1040.3229	1054.854	1062.9359	1071.7186	1085.4188	1110.1321	1118.1205	1128.9694	1177.2569	1213.8851	1234.5547	1287.5237	1291.5219	1309.1906	1339.9899	1348.3442	1364.6547	1386.3723	1432.5346	1447.3918	1484.7774	1509.7767	2956.2744	3043.8214	3058.5344	3081.0291	3132.7	3134.2823	3158.6802	3163.5131	3170.9985	3183.3014
C1C2C3COC4C1C4C23	C1[C@H]2[C@H]3CO[C@H]4[C@@H]1[C@H]4[C@@H]23	
InChI=1S/C8H10O/c1-3-5-2-9-8-4(1)7(8)6(3)5/h3-8H,1-2H2	InChI=1S/C8H10O/c1-3-5-2-9-8-4(1)7(8)6(3)5/h3-8H,1-2H2/t3-,4-,5+,6-,7-,8-/m0/s1
