16
gdb 28101	5.05125	1.22996	1.00133	2.0068	79.72	-0.2002	-0.0208	0.1794	1145.8475	0.125916	-400.787759	-400.780539	-400.779595	-400.819333	27.748	
C	-0.0208860856	 1.4467109613	 0.0354429631	-0.485362
C	-0.0005990347	-0.0459864843	-0.025295641	 0.303226
C	-0.0410502927	-0.8193306154	-1.1396239965	-0.327608
C	 0.002218609	-2.1939324091	-0.6891395956	 0.33814
C	 0.0676340914	-2.2922881546	 0.6602006049	 0.222557
C	 0.0730430639	-0.9125562961	 1.2407897929	-0.45438
N	 0.1059740023	-3.6210694344	 1.0310793295	-0.339631
C	 0.0621194672	-4.245171396	-0.1082467183	 0.022907
O	-0.0034664882	-3.4408945954	-1.2219458518	-0.201616
H	 0.8788132778	 1.8433225385	 0.523288722	 0.130082
H	-0.0795168188	 1.8825883207	-0.9655855245	 0.128176
H	-0.8772223704	 1.8157802322	 0.6143467306	 0.129987
H	-0.0950510632	-0.4691603403	-2.1611172827	 0.111532
H	 0.9768900718	-0.6862357458	 1.8205350236	 0.138201
H	-0.7791095083	-0.7143192447	 1.9032188892	 0.13822
H	 0.0702357485	-5.3071885166	-0.2923785653	 0.145569
136.7698	153.3796	240.3141	270.9277	299.9735	448.8016	470.407	516.5232	646.4033	719.8592	733.8613	778.8163	793.6553	834.4019	861.3153	916.4527	947.4588	1008.5143	1052.7552	1065.6504	1111.4193	1142.9887	1145.6628	1213.6626	1281.0174	1308.0965	1375.0732	1413.9629	1433.3524	1453.5127	1476.6244	1486.1527	1508.5897	1582.8792	1640.8384	3014.8369	3036.3055	3058.105	3068.0043	3110.3352	3228.2427	3285.0234
CC1=CC2=C(C1)N=CO2	CC1=Cc2c(C1)nco2	
InChI=1S/C7H7NO/c1-5-2-6-7(3-5)9-4-8-6/h3-4H,2H2,1H3	InChI=1S/C7H7NO/c1-5-2-6-7(3-5)9-4-8-6/h3-4H,2H2,1H3
