19
gdb 94333	2.59862	1.25572	1.08772	1.4563	82.12	-0.2438	0.0404	0.2842	1202.1517	0.157037	-385.825619	-385.816503	-385.815559	-385.859601	34.258	
C	-0.3577251469	 1.4010919913	 0.0659275274	-0.406051
C	 0.1250709058	-0.0322770479	-0.0163386388	 0.09386
O	 1.363460774	-0.1630675462	-0.7692740049	-0.299407
C	 2.0372667179	-0.8135282497	 0.3270869615	-0.140989
C	 0.8022472672	-0.6584153017	 1.2040549092	 0.276969
C	 0.7001680658	-0.2763552277	 2.6395562887	-0.353131
C	 0.214157772	-1.6506998043	 2.1837232726	-0.268951
C	-1.1887704302	-1.9386359739	 2.1363367278	 0.330759
C	-2.3678555077	-2.1709421123	 2.0725305382	-0.460655
H	 0.3976710297	 2.0447862352	 0.5260889371	 0.118937
H	-0.5724548057	 1.7810026171	-0.9377515075	 0.128388
H	-1.2792667345	 1.4590699266	 0.6551141325	 0.121921
H	-0.6555830296	-0.6751408561	-0.4459743731	 0.087768
H	 2.3209350706	-1.8467334338	 0.0853367614	 0.102683
H	 2.9306857788	-0.2620578371	 0.6485484954	 0.103513
H	 1.6088766502	-0.2469472396	 3.2325152171	 0.120842
H	-0.0563012598	 0.4449403637	 2.9287350463	 0.131361
H	 0.8515073505	-2.4911710981	 2.4474121696	 0.114517
H	-3.4074436782	-2.3818780856	 2.0279704895	 0.197665
67.1007	96.0113	143.3685	206.4658	229.6805	271.8153	327.2244	374.2814	454.3021	503.9341	538.4544	576.041	623.3285	655.7069	784.3184	798.2844	862.9004	878.5944	898.992	951.9744	1016.6947	1033.1604	1051.3052	1074.3847	1086.8342	1099.3225	1122.1533	1142.9831	1156.778	1219.2155	1279.0392	1313.3306	1356.3362	1385.2829	1403.6397	1426.3359	1484.3996	1486.6985	1493.6147	1524.1769	2233.9108	2998.5378	3010.5243	3035.7753	3040.0007	3108.2438	3117.1677	3128.4652	3135.7472	3219.5819	3504.8369
CC1OCC11CC1C#C	C[C@H]1OC[C@]21C[C@H]2C#C	
InChI=1S/C8H10O/c1-3-7-4-8(7)5-9-6(8)2/h1,6-7H,4-5H2,2H3	InChI=1S/C8H10O/c1-3-7-4-8(7)5-9-6(8)2/h1,6-7H,4-5H2,2H3/t6-,7-,8+/m1/s1
