16
gdb 66519	3.61277	1.25813	1.06264	2.69	81.09	-0.2311	-0.052	0.1791	1133.3046	0.123145	-400.68443	-400.676492	-400.675548	-400.716809	30.457	
O	 0.2369227488	 1.3816571029	-0.3863565955	-0.467373
C	-0.1668385989	 0.0724791359	-0.1517285276	 0.35503
C	-1.5251993415	-0.0934201064	 0.5304790967	-0.042505
C	 0.2541578937	-1.0707075669	-1.0697555113	-0.352733
C	 0.5904777727	-1.9044140331	-0.0597433667	 0.37785
C	 0.9918378728	-3.2882541316	 0.0169126945	-0.096274
C	 1.1707673859	-3.947585808	 1.1663651709	-0.323365
N	-1.2079870461	-0.9033592918	 1.4734874559	-0.186399
C	 0.2473123375	-0.8855748361	 1.0251703658	-0.217057
H	 1.1211953788	 1.3578528267	-0.7681301547	 0.285993
H	-2.5184765401	 0.3010292397	 0.3177838952	 0.119712
H	 0.1914889825	-1.194852846	-2.1461565834	 0.107362
H	 1.1435699375	-3.8011404196	-0.9310167048	 0.095406
H	 1.4589978092	-4.9923703982	 1.1849923316	 0.122956
H	 1.0228393886	-3.462367584	 2.1259467944	 0.12589
H	 0.9596798985	-0.6182723037	 1.8042097689	 0.095508
90.1506	157.0107	182.498	279.9205	340.5679	360.078	386.9737	440.0073	463.2883	592.312	610.7174	701.968	745.3842	835.1524	864.924	891.9287	916.6256	957.1415	962.5666	995.2341	1008.7537	1036.1291	1045.804	1103.2013	1148.4578	1187.448	1243.5018	1289.5333	1306.5987	1324.6735	1372.6399	1445.9434	1622.4372	1642.5566	1698.8016	3133.448	3140.4579	3146.1838	3156.4722	3180.598	3241.4666	3804.7142
OC12C3C1C1=CCN3C21	O[C@@]12[CH][N][C@H]2C(=C1)C=C	
InChI=1S/C7H7NO/c9-7-4-3-1-2-8(5(3)7)6(4)7/h1,4-6,9H,2H2	InChI=1S/C7H7NO/c1-2-5-3-7(9)4-8-6(5)7/h2-4,6,9H,1H2/t6-,7+/m0/s1
