15
gdb 28711	6.64518	0.84294	0.7544	4.6624	71.34	-0.2203	-0.0124	0.2078	1435.6516	0.112619	-454.010356	-454.00189	-454.000946	-454.044415	29.572	
C	 0.0601721303	 1.4902019215	 0.1354388921	-0.505684
C	-0.0222356454	 0.013589433	-0.0399716546	 0.301815
C	-0.1466439083	-0.7846666781	-1.1427055634	-0.167863
N	-0.2002888126	-2.1264759042	-0.7951173266	-0.348891
C	-0.0978388294	-2.1226090224	 0.5015481223	 0.478633
N	 0.0113512403	-0.8770729562	 1.0296531822	-0.378093
O	-0.1041893741	-3.1829761246	 1.3534084064	-0.236052
C	 0.1586724486	-4.4284748384	 0.8301020475	 0.161873
O	 0.1095929258	-5.3962670035	 1.5197164297	-0.255606
H	 0.9951556707	 1.7986342395	 0.6188948686	 0.133615
H	 0.0167927987	 1.9770186604	-0.8414554115	 0.146907
H	-0.7675638781	 1.8822831988	 0.738893304	 0.134624
H	-0.2106098814	-0.4762573651	-2.1748582339	 0.114722
H	 0.0990694342	-0.6582057253	 2.0081586599	 0.274696
H	 0.4012651706	-4.3841630554	-0.2398072728	 0.145304
42.1577	113.9307	143.6718	156.5051	217.5205	296.3893	360.9385	441.0472	497.7235	530.6326	646.6137	671.8985	719.7827	829.2108	845.8977	993.1272	1008.3011	1046.9366	1059.172	1066.5407	1094.1043	1191.8922	1215.9869	1280.7434	1380.6813	1399.5606	1421.7879	1479.1771	1493.8998	1502.2324	1570.8636	1635.0472	1875.7455	3021.1802	3067.6466	3071.9389	3125.0021	3254.239	3664.4085
CC1=CN=C(N1)OC=O	Cc1cnc([nH]1)OC=O	
InChI=1S/C5H6N2O2/c1-4-2-6-5(7-4)9-3-8/h2-3H,1H3,(H,6,7)	InChI=1S/C5H6N2O2/c1-4-2-6-5(7-4)9-3-8/h2-3H,1H3,(H,6,7)
