19
gdb 57295	3.43029	0.67895	0.64786	1.3179	85.93	-0.2486	0.0328	0.2814	1801.9213	0.154161	-385.826564	-385.815521	-385.814577	-385.865036	39.504	
C	 0.7913901457	 1.3432187812	 0.1965530661	-0.403639
C	-0.0514231104	 0.0675886978	 0.0066973725	 0.151431
C	 0.1458959624	-0.9048995422	 1.1852420058	-0.403267
O	-1.4383217868	 0.4125983274	-0.1158939636	-0.453966
C	 0.3208873348	-0.5943020426	-1.2501732067	 0.179462
C	 0.6694058809	-1.1432701232	-2.2613065418	 0.024339
C	 1.0710975046	-1.8099406857	-3.5019167398	-0.493272
C	 2.2554573579	-2.6581495193	-3.3528053913	 0.317273
C	 3.2268307034	-3.3550973126	-3.2437588505	-0.444846
H	 1.8587231495	 1.1090566879	 0.2347128067	 0.126598
H	 0.6110045552	 2.0352485423	-0.6288426647	 0.132498
H	 0.5150429302	 1.8359699565	 1.1362269658	 0.102139
H	-0.1299459453	-0.4118202481	 2.1250584237	 0.101821
H	-0.4856167486	-1.7857635498	 1.0517394141	 0.133804
H	 1.1881824152	-1.2264163117	 1.2614160675	 0.127642
H	-1.693343343	 0.8437821087	 0.7076868073	 0.276973
H	 0.2354605684	-2.4177472033	-3.8756425688	 0.163989
H	 1.2608356146	-1.0583793752	-4.2807044503	 0.161173
H	 4.0855759511	-3.971361398	-3.143284932	 0.199847
4.7424	63.8478	110.263	153.4968	236.964	242.423	274.0071	280.1659	316.7516	322.6198	339.9454	364.7743	406.5142	538.1518	559.7531	567.0597	621.0582	647.3777	687.6985	855.2715	918.0658	935.034	938.7244	961.338	1017.3145	1073.3517	1171.0699	1182.7834	1194.445	1229.5702	1332.9652	1389.9379	1390.5593	1410.5994	1453.7576	1476.2486	1479.7408	1492.1654	1508.7424	2247.3297	2380.2827	3008.8513	3028.2672	3033.1658	3033.9542	3102.5618	3109.1979	3134.2712	3136.5219	3507.1143	3797.9339
CC(C)(O)C#CCC#C	CC(C)(O)C#CCC#C	
InChI=1S/C8H10O/c1-4-5-6-7-8(2,3)9/h1,9H,5H2,2-3H3	InChI=1S/C8H10O/c1-4-5-6-7-8(2,3)9/h1,9H,5H2,2-3H3
