20
gdb 13395	5.68078	1.07076	0.96255	0.9043	78.08	-0.2411	0.0224	0.2635	1272.629	0.177173	-349.013005	-349.004504	-349.00356	-349.04681	30.896	
C	-0.0132313562	 1.5378321262	-0.0863400636	-0.383035
C	 0.1387683023	 0.0305086837	 0.0381803441	-0.03714
O	 0.5891261963	-0.4748562123	-1.2020345191	-0.256733
C	 0.702470348	-1.8905823958	-1.2583252945	 0.118379
C	 0.844476251	-2.320289977	-2.7356464417	-0.241872
C	 1.9093314945	-3.4442031224	-2.7574473978	-0.256395
C	 2.5999693299	-3.2860097355	-1.4239480072	-0.060201
C	 1.9529301832	-2.4526984648	-0.6126300327	-0.089203
H	 0.9450919755	 1.9994169748	-0.3409089099	 0.126262
H	-0.7313290714	 1.7862031386	-0.8730418633	 0.124818
H	-0.3659840159	 1.9664103576	 0.8566384119	 0.111707
H	 0.8486125463	-0.2130846666	 0.8455354974	 0.084813
H	-0.8249276447	-0.434400821	 0.3092884468	 0.082822
H	-0.1982729216	-2.3281142382	-0.7917875747	 0.061719
H	-0.1073666968	-2.6201489567	-3.1792973263	 0.09715
H	 1.2046854245	-1.4448087723	-3.2832197973	 0.12106
H	 1.4486986127	-4.4382456143	-2.8391632276	 0.107055
H	 2.5994953012	-3.359321899	-3.604696241	 0.104714
H	 3.505349413	-3.8279688098	-1.1706225955	 0.092275
H	 2.2437548381	-2.2113095652	 0.4033659118	 0.091806
60.0931	70.7043	104.4159	191.4272	247.0821	293.8519	368.0576	401.6474	539.989	639.5468	752.3775	777.5313	819.7463	843.6304	890.6974	908.9554	927.1762	974.8591	992.4056	1025.0183	1058.6407	1080.2916	1115.7788	1140.1533	1159.0662	1186.8111	1193.6132	1234.2538	1289.6734	1296.4112	1307.5169	1332.1409	1350.7979	1388.2518	1402.3596	1436.1473	1481.9058	1483.1471	1499.0072	1500.1429	1529.3261	1687.2933	2933.4343	2954.2255	2981.3434	3014.5454	3044.0108	3051.0183	3068.9528	3115.4857	3118.1259	3120.8041	3178.4695	3207.4875
CCOC1CCC=C1	CCO[C@H]1CCC=C1	
InChI=1S/C7H12O/c1-2-8-7-5-3-4-6-7/h3,5,7H,2,4,6H2,1H3	InChI=1S/C7H12O/c1-2-8-7-5-3-4-6-7/h3,5,7H,2,4,6H2,1H3/t7-/m1/s1
