18
gdb 8549	3.84672	2.2108	1.81982	1.1535	70.48	-0.2418	0.0783	0.3201	783.7106	0.15512	-347.764276	-347.757688	-347.756744	-347.794455	27.251	
O	 0.0347620648	 1.4094566393	 0.0156136759	-0.485107
C	 0.0218669595	 0.0106445755	 0.0017566883	 0.420201
C	 0.4848123984	-0.7181482286	-1.2861003869	-0.295132
C	-0.6902633815	-1.7205869639	-1.1356682485	-0.029466
C	-0.4484792354	-2.7883202643	-0.0399131751	-0.223104
C	-0.7588404082	-1.741749388	 1.0589818091	-0.02948
C	 0.4039199296	-0.7430906245	 1.301787991	-0.295004
C	-1.3298795904	-0.7805698143	-0.0480927057	-0.089042
H	 0.9532258049	 1.7018257404	 0.042621321	 0.2737
H	 0.3199656143	-0.0596753681	-2.1443524824	 0.102879
H	 1.504461478	-1.1179118963	-1.3250829121	 0.082195
H	-1.1928353737	-2.0363266052	-2.0498316251	 0.065511
H	-1.227994732	-3.5557683667	-0.0716872531	 0.09831
H	 0.5279817571	-3.2850588322	-0.0142015564	 0.086161
H	-1.3173632026	-2.0747430721	 1.9336994341	 0.065506
H	 1.4193847217	-1.1441224519	 1.396782915	 0.082144
H	 0.1853764568	-0.1010476338	 2.1604801386	 0.102937
H	-2.3192470612	-0.3319973153	-0.0746961978	 0.06679
186.6083	244.1533	270.4988	363.5679	412.1732	419.4481	568.7138	610.269	716.9168	791.6287	823.7061	847.257	873.5252	895.5632	918.5666	939.3364	939.366	966.8403	1027.021	1047.7025	1056.5165	1095.7618	1122.9933	1147.773	1159.4304	1180.4862	1212.8274	1228.2735	1234.4727	1242.7799	1286.7565	1287.2712	1307.8997	1336.8956	1367.7051	1471.9361	1477.334	1492.5634	3030.1666	3031.7737	3036.0966	3084.8013	3091.5525	3093.392	3102.1432	3105.7593	3154.4401	3787.1159
OC12CC3CC(C1)C23	O[C@@]12C[C@H]3C[C@@H](C1)[C@@H]23	
InChI=1S/C7H10O/c8-7-2-4-1-5(3-7)6(4)7/h4-6,8H,1-3H2	InChI=1S/C7H10O/c8-7-2-4-1-5(3-7)6(4)7/h4-6,8H,1-3H2/t4-,5+,6+,7+
