18
gdb 73706	2.73803	2.06544	1.40275	1.0657	70.98	-0.2414	0.0796	0.3211	932.5196	0.149467	-439.016006	-439.009054	-439.008109	-439.046925	28.583	
C	 0.0214698451	 1.5233463178	-0.1203789161	-0.473606
C	-0.0072948806	 0.018914434	 0.0074781918	 0.483884
O	 0.3571680703	-0.5420088992	-1.241277001	-0.313322
C	-0.1241826446	-1.8477023254	-1.4096876245	 0.009041
O	 0.1203406325	-2.6512376922	-0.2791966895	-0.265891
C	-0.2034430151	-1.9351057802	 0.883613197	 0.126695
C	 0.6360329248	-0.675849802	 1.2512971274	-0.129189
N	-0.5321474874	-0.1529300791	 2.0571748102	-0.33215
C	-1.1646442471	-0.6998863931	 0.799398417	-0.17328
H	 1.0073939691	 1.8439806336	-0.4705071476	 0.125668
H	-0.7169638875	 1.8530087473	-0.857620118	 0.119322
H	-0.1910783714	 1.9902510482	 0.8410798401	 0.147686
H	-1.210133385	-1.8202249804	-1.606407875	 0.087587
H	 0.4005054416	-2.2914306552	-2.2581868502	 0.122356
H	-0.3899091997	-2.6428182615	 1.696063922	 0.084978
H	 1.6666452956	-0.6155178131	 1.6028653987	 0.082636
H	-0.7213366819	-0.7987574933	 2.8306644227	 0.212989
H	-2.2437530887	-0.6584201964	 0.6424684852	 0.084595
201.8991	210.4941	265.7444	326.2759	371.3156	448.5592	466.9553	561.6288	564.5752	656.0885	745.8392	785.5763	834.9495	870.9628	908.8888	916.296	930.797	1006.1224	1034.6654	1051.2722	1093.5188	1114.5605	1125.2806	1143.6807	1155.3215	1173.0833	1181.9628	1225.6832	1255.7289	1261.9441	1285.7181	1293.7027	1336.6349	1385.2718	1404.2506	1449.0126	1490.846	1491.4236	1523.1108	2949.7887	3048.3123	3080.4965	3101.841	3109.2994	3111.3676	3115.6012	3159.3206	3382.6455
CC12OCOC3C1NC23	C[C@@]12OCO[C@H]3[C@@H]1N[C@@H]23	
InChI=1S/C6H9NO2/c1-6-4-3(5(6)7-4)8-2-9-6/h3-5,7H,2H2,1H3	InChI=1S/C6H9NO2/c1-6-4-3(5(6)7-4)8-2-9-6/h3-5,7H,2H2,1H3/t3-,4-,5+,6+
