19
gdb 89472	2.21668	1.51692	1.41274	2.4026	70.66	-0.2373	0.0618	0.2991	1050.6543	0.156764	-460.126389	-460.117015	-460.116071	-460.16005	35.623	
O	 0.5878214921	 0.7221717431	-0.8648504412	-0.436022
C	 0.0637685053	-0.2688984785	-0.0168790147	 0.07981
C	 0.0950663749	-0.0924095452	 1.5332802308	-0.356331
C	-1.3543822159	-0.6737670126	 1.616920464	 0.382194
O	-1.4991123728	-1.9256419916	 2.2129606631	-0.481993
C	-2.4455580225	 0.4012611592	 1.8023542362	-0.284471
C	-2.343328786	 0.7348221368	 0.280782207	-0.301504
C	-1.4544034881	-0.5317722801	 0.0527439783	 0.34581
O	-2.0023361361	-1.5482025966	-0.7291780714	-0.48366
H	 0.205079354	 1.5689072285	-0.611639803	 0.280298
H	 0.5600876733	-1.2013907027	-0.3023326809	 0.103932
H	 0.8534378268	-0.6841202414	 2.0498387131	 0.107922
H	 0.1762305443	 0.9512245326	 1.8550337994	 0.08967
H	-1.2691569757	-1.8454747977	 3.1454196896	 0.278056
H	-3.4047295344	-0.0619059784	 2.0467357398	 0.113472
H	-2.2422272337	 1.2086429406	 2.5122769422	 0.088992
H	-3.2887834878	 0.6773192425	-0.26017183	 0.11507
H	-1.8700710593	 1.694255876	 0.0463148041	 0.075936
H	-1.8337432082	-1.3346499248	-1.6542176163	 0.282819
81.3374	145.7501	182.5219	206.7635	219.7596	251.6609	300.6643	326.9781	379.1047	415.5471	474.5686	563.6223	585.6643	599.8052	722.3018	761.2557	806.8452	891.7268	905.471	935.6737	960.1253	989.096	1024.126	1078.78	1110.7689	1138.4462	1184.5736	1201.1343	1219.369	1224.5823	1230.2259	1246.7401	1275.0704	1306.5003	1314.0483	1329.5435	1404.3373	1431.2304	1466.6032	1468.8277	1494.7519	3043.652	3046.1311	3052.4055	3071.0795	3106.9715	3116.2676	3125.7476	3791.6658	3794.8788	3806.637
OC1CC2(O)CCC12O	O[C@H]1C[C@@]2(O)CC[C@@]12O	
InChI=1S/C6H10O3/c7-4-3-5(8)1-2-6(4,5)9/h4,7-9H,1-3H2	InChI=1S/C6H10O3/c7-4-3-5(8)1-2-6(4,5)9/h4,7-9H,1-3H2/t4-,5-,6+/m0/s1
