17
gdb 65022	2.10851	1.39818	1.06377	1.4257	68.66	-0.2566	-0.0453	0.2112	1172.554	0.131164	-458.95524	-458.945555	-458.94461	-458.990973	33.429	
C	-0.0199058609	 1.351263744	-0.6945214501	-0.478955
C	 0.0235745925	-0.059631354	-0.1524817317	 0.418302
C	 1.2307107303	-0.8772740715	-0.3191433122	-0.22326
O	 0.9314524144	-0.2729446162	 0.9435755148	-0.289174
C	-1.3120392568	-0.7595821415	 0.0526010181	-0.268865
C	-2.1576845767	-0.1042857187	 1.1484340989	 0.139664
O	-3.3400485456	-0.2856929564	 1.2786285789	-0.245569
C	-2.1246179408	-0.973148049	-1.2195094089	 0.154196
O	-1.6851979542	-0.8137517622	-2.3289093661	-0.246134
H	 0.9843721847	 1.7804491022	-0.7014744351	 0.134477
H	-0.4165599659	 1.3521585815	-1.7126140729	 0.156349
H	-0.6559384277	 1.9944470216	-0.0757603498	 0.123888
H	 1.1541930099	-1.9633342525	-0.3512232457	 0.11554
H	 2.0877498145	-0.4598176763	-0.8443629154	 0.12269
H	-1.1131682645	-1.7699581875	 0.4466986587	 0.146875
H	-1.5849405356	 0.5420255458	 1.8462621057	 0.117235
H	-3.1673144278	-1.2988836594	-1.0390089174	 0.122742
36.051	67.2801	112.3331	169.9716	186.6748	203.5204	235.7938	344.4841	350.2469	391.1252	481.5258	566.5106	640.3966	731.5491	822.654	862.3604	873.5395	925.2436	972.1145	1045.518	1057.758	1092.9722	1117.7679	1133.6915	1163.6686	1224.5192	1242.1336	1290.5426	1397.0036	1409.9848	1420.7991	1425.2053	1487.3879	1498.6113	1534.0668	1812.6532	1833.4793	2914.7597	2954.2154	2992.1349	3040.7727	3086.3406	3111.1985	3140.4104	3173.5451
CC1(CO1)C(C=O)C=O	C[C@]1(CO1)C(C=O)C=O	
InChI=1S/C6H8O3/c1-6(4-9-6)5(2-7)3-8/h2-3,5H,4H2,1H3	InChI=1S/C6H8O3/c1-6(4-9-6)5(2-7)3-8/h2-3,5H,4H2,1H3/t6-/m0/s1
