17
gdb 123764	4.85235	1.03836	0.96728	2.4961	74.61	-0.2368	0.0188	0.2556	1231.6553	0.138743	-418.006022	-417.998444	-417.997499	-418.039274	27.992	
C	-0.207733657	 1.0203739111	 0.4819430161	-0.063012
C	 0.8376031764	 1.0429255422	-0.6467634964	-0.287831
C	 1.7960156447	 0.4633713778	 0.4295843448	 0.052569
O	 0.6844110801	 0.2854291331	 1.3465523375	-0.292783
C	 2.5201984833	-0.806755831	 0.1470091134	 0.339052
N	 3.8425553562	-0.8088786997	-0.0215197002	-0.300187
N	 4.1438907368	-2.0925215922	-0.2881354629	-0.180119
C	 3.05991697	-2.9073812448	-0.280992936	-0.022126
C	 1.9763530985	-2.105388131	-0.0025870337	-0.27728
H	-0.4548405332	 2.0068807995	 0.896539598	 0.09865
H	-1.1381437112	 0.4732251694	 0.2930449037	 0.103027
H	 0.6319535666	 0.3429216376	-1.4582279666	 0.11286
H	 1.1063178571	 2.0153042616	-1.0613738028	 0.111434
H	 2.5111184826	 1.2056165434	 0.8059574477	 0.085686
H	 5.1049230629	-2.3443907939	-0.4444457709	 0.275231
H	 3.1465980857	-3.9669556641	-0.4633060312	 0.132871
H	 0.9469474104	-2.4043463989	 0.1019323297	 0.111957
42.3421	93.2206	145.3576	212.5265	386.4478	411.4324	512.6319	654.3285	664.2965	728.727	772.8633	783.817	848.1924	857.5933	919.3006	949.337	953.4647	989.726	1022.0037	1037.1693	1073.9082	1097.7995	1110.9011	1168.3944	1201.7525	1213.6119	1252.6994	1269.3633	1303.2544	1346.8588	1353.7064	1419.1312	1478.529	1488.9634	1495.5915	1531.4165	1573.9465	3009.3757	3027.94	3057.7445	3082.1666	3140.5281	3259.1805	3283.9531	3675.7275
C1CC(O1)C1=NNC=C1	C1C[C@@H](O1)c1n[nH]cc1	
InChI=1S/C6H8N2O/c1-3-7-8-5(1)6-2-4-9-6/h1,3,6H,2,4H2,(H,7,8)	InChI=1S/C6H8N2O/c1-3-7-8-5(1)6-2-4-9-6/h1,3,6H,2,4H2,(H,7,8)/t6-/m1/s1
