19
gdb 73725	2.71153	1.91856	1.42718	1.4987	74.05	-0.2127	0.074	0.2867	966.4868	0.160428	-422.986663	-422.979312	-422.978368	-423.017953	29.995	
C	 0.0469661587	 1.4368203661	 0.0384470054	-0.449439
C	-0.0235503134	-0.0705373299	 0.0278163945	 0.41338
O	 1.0394059382	-0.573830075	-0.7345074395	-0.312736
C	 1.1439901747	-1.9868809212	-0.8957527837	-0.06134
C	-0.2056369442	-2.6884000154	-1.0905287398	-0.241268
C	-1.1649245062	-2.2062929115	-0.0098913183	 0.078914
O	-0.4879283655	-2.1329277363	 1.2867828089	-0.307294
C	-0.5972866735	-0.7112820958	 1.2746449008	 0.01414
C	-1.3946134821	-0.6885130539	-0.0259703419	-0.214378
H	 1.0081291095	 1.7671753197	 0.4432099954	 0.129816
H	-0.0482423489	 1.8291177336	-0.9787858953	 0.127102
H	-0.7542485129	 1.8627369187	 0.6491209057	 0.11745
H	 1.7868296879	-2.1330314274	-1.7688103879	 0.100918
H	 1.6447766142	-2.4209568934	-0.0228745821	 0.114759
H	-0.6363553104	-2.4669155197	-2.0742597628	 0.108056
H	-0.0499375147	-3.7711075678	-1.0295886491	 0.106942
H	-2.0729743365	-2.8092361028	 0.0744383723	 0.083719
H	-0.7260526776	-0.2127078163	 2.2301809745	 0.10053
H	-2.3036525071	-0.1807777016	-0.3243732471	 0.090731
170.1735	208.2625	245.487	298.7043	315.3962	357.6625	479.6254	509.6485	582.6019	654.2632	692.1518	757.664	811.049	854.9878	860.3517	904.8472	920.0467	945.0207	968.2712	1032.5316	1039.0931	1051.3386	1078.8268	1089.7862	1122.9966	1138.0834	1183.1762	1213.71	1240.2578	1251.698	1284.7472	1305.7019	1344.2759	1374.4274	1406.384	1414.0327	1432.1877	1471.8605	1477.2661	1502.5493	1509.2443	3034.7632	3036.1303	3040.1807	3068.9701	3079.4762	3090.3801	3109.521	3118.4648	3159.6317	3181.9869
CC12OCCC3OC1C23	C[C@@]12OCC[C@H]3O[C@@H]1[C@@H]23	
InChI=1S/C7H10O2/c1-7-5-4(2-3-8-7)9-6(5)7/h4-6H,2-3H2,1H3	InChI=1S/C7H10O2/c1-7-5-4(2-3-8-7)9-6(5)7/h4-6H,2-3H2,1H3/t4-,5+,6-,7+/m1/s1
