16
gdb 48312	2.16488	1.96337	1.19061	3.3744	74.14	-0.2721	-0.0556	0.2165	1019.6715	0.124396	-400.711538	-400.703875	-400.702931	-400.743885	28.869	
O	-0.2131368643	 0.0808041809	-0.2778765091	-0.237059
C	-0.021427772	 1.1890485991	 0.1462371691	 0.08856
C	 1.2940635286	 1.950367515	 0.0139085555	 0.11357
C	 1.5735337347	 2.5781009175	 1.3016171052	 0.211958
N	 1.7415936496	 3.0512104019	 2.3436838314	-0.333165
C	 2.4894998654	 1.3205671982	-0.7833545867	-0.068356
C	 1.6730272811	 1.5477345245	-2.0930505514	-0.244183
C	 1.5170126767	 2.8600005407	-1.2752882613	-0.078715
C	 3.0409640171	 2.7653474593	-0.9784471897	-0.245204
H	-0.8117606166	 1.7504508891	 0.6893198229	 0.106885
H	 3.034813507	 0.4280603557	-0.4811647624	 0.103761
H	 2.2717404444	 1.6434252825	-3.000571859	 0.106593
H	 0.7950511596	 0.9273189566	-2.2541699831	 0.133627
H	 0.9320964452	 3.7473527783	-1.5163277525	 0.10087
H	 3.4157146503	 3.2872747432	-0.0968114065	 0.132583
H	 3.693794153	 2.9086166274	-1.8412878724	 0.108277
94.9623	148.006	168.8784	216.0566	277.9754	423.0433	509.6062	529.6601	553.1338	594.5961	697.2773	783.3351	807.4103	868.7072	899.2861	907.141	992.4793	1014.7676	1021.4082	1048.9894	1080.1374	1098.0254	1113.5051	1151.9191	1183.2157	1191.8532	1199.7195	1233.5655	1243.6996	1251.9854	1425.2707	1507.6139	1544.8535	1827.1952	2343.0126	2906.2445	3075.7095	3089.0225	3122.102	3135.9648	3144.8157	3177.283
O=CC1(C#N)C2CC1C2	O=C[C@@]1(C#N)[C@H]2C[C@@H]1C2	
InChI=1S/C7H7NO/c8-3-7(4-9)5-1-6(7)2-5/h4-6H,1-2H2	InChI=1S/C7H7NO/c8-3-7(4-9)5-1-6(7)2-5/h4-6H,1-2H2/t5-,6+,7-
