15
gdb 124288	4.16763	1.09431	0.8761	4.6084	68.79	-0.2615	-0.0678	0.1938	1274.0585	0.110783	-453.974525	-453.965789	-453.964845	-454.009148	29.913	
C	 1.1225930634	 0.7018165205	 0.1916744144	-0.479802
C	-0.2827553866	 0.376747285	-0.2583597086	 0.317536
O	-1.2695693714	 0.9145867615	 0.1818989636	-0.274382
C	-0.3955674249	-0.6853298132	-1.3171548346	 0.252487
N	-1.5512788453	-1.0682773331	-1.8012116593	-0.144255
O	-1.2004204865	-2.0411415041	-2.7293888142	-0.180438
C	 0.1404109813	-2.1449056597	-2.7088067814	 0.407958
C	 0.7812719531	-3.1271663145	-3.6195123843	-0.497648
N	 0.6938997492	-1.3349500574	-1.8584752534	-0.345981
H	 1.6123393298	-0.1952070609	 0.5843587797	 0.153354
H	 1.726695791	 1.0324702577	-0.6594568816	 0.153358
H	 1.0837052397	 1.4788709233	 0.9550902698	 0.142517
H	 0.537717369	-2.9008817883	-4.6618172392	 0.164281
H	 1.8617936543	-3.090146896	-3.4840007302	 0.166732
H	 0.422836914	-4.1388491407	-3.4074756408	 0.164284
48.8493	68.3119	138.6222	153.3597	163.2851	303.6708	334.1907	370.0815	491.0548	559.0346	627.2245	680.2042	716.8964	757.5549	930.3909	962.1287	991.4623	1024.3781	1046.2075	1066.9083	1070.0961	1177.8206	1292.1287	1370.1922	1387.9921	1409.7788	1455.4329	1465.7166	1474.6532	1475.5323	1520.5934	1624.8473	1813.1845	3047.4604	3055.4979	3109.0355	3115.6877	3162.3621	3166.1199
CC(=O)C1=NOC(C)=N1	CC(=O)c1noc(C)n1	
InChI=1S/C5H6N2O2/c1-3(8)5-6-4(2)9-7-5/h1-2H3	InChI=1S/C5H6N2O2/c1-3(8)5-6-4(2)9-7-5/h1-2H3
