18
gdb 98633	3.36424	0.98712	0.85718	0.8594	73.96	-0.2536	-0.03	0.2236	1380.3797	0.145696	-439.106181	-439.096908	-439.095964	-439.141688	32.918	
C	-0.332675555	 1.3897273199	-0.8378709643	-0.382166
C	-1.0144697933	 0.0554066596	-0.5493886828	-0.286552
C	-0.5920928795	-0.5570386374	 0.7701108917	 0.350442
O	 0.2195224861	-0.05614069	 1.5139234664	-0.303131
C	-1.2497249706	-1.8664766863	 1.1903462002	 0.030888
C	-2.5569854482	-1.7403583207	 2.0159613734	-0.36678
C	-3.1758083746	-2.473513498	 0.8446236841	 0.434481
N	-4.3224215132	-2.8882225585	 0.5656451127	-0.530198
O	-1.9901265427	-2.5497403374	 0.1303783574	-0.257416
H	-0.6551078242	 1.7847471625	-1.8048168287	 0.114869
H	-0.569806257	 2.1267051406	-0.0661751592	 0.131488
H	 0.7541980298	 1.2764391036	-0.8542678882	 0.134535
H	-2.1093362852	 0.1512766383	-0.5463872864	 0.130352
H	-0.8134906173	-0.6864182502	-1.3337266693	 0.141881
H	-0.4946701425	-2.5242867796	 1.6265018645	 0.123454
H	-2.5714855615	-2.2805885714	 2.9627635012	 0.152636
H	-2.9262857897	-0.7251632403	 2.1714386578	 0.14783
H	-4.3439940216	-3.3544799745	-0.3426700805	 0.233387
34.9389	69.3603	83.5803	176.9174	197.1301	235.4155	290.0135	411.8427	467.7334	494.5317	549.7706	589.3361	722.9186	769.9172	795.9294	866.4833	895.3854	950.1609	968.2317	1000.26	1008.3577	1030.6723	1074.5445	1080.7321	1125.3389	1186.3355	1212.7182	1226.9627	1269.3114	1297.6088	1338.5941	1377.3893	1416.9754	1438.5844	1466.3134	1493.8803	1497.9583	1807.2687	1833.9415	3024.2287	3050.4534	3053.1832	3092.4466	3095.0771	3125.301	3127.685	3149.7071	3481.8586
CCC(=O)C1CC(=N)O1	CCC(=O)[C@H]1C[C]([NH])O1	
InChI=1S/C6H9NO2/c1-2-4(8)5-3-6(7)9-5/h5,7H,2-3H2,1H3	InChI=1S/C6H9NO2/c1-2-4(8)5-3-6(7)9-5/h5,7H,2-3H2,1H3/t5-/m1/s1
