20
gdb 96867	2.143	1.4948	0.93917	2.5418	87.48	-0.2281	-0.0168	0.2114	1308.1589	0.169503	-403.188387	-403.178552	-403.177608	-403.22382	35.047	
C	 0.0093390623	 1.4057363657	 0.0069670654	-0.332128
N	-0.0134564677	-0.0466968384	-0.0119922165	-0.334402
C	 0.5497325631	-0.664902078	-0.9597174818	 0.369882
O	 1.2053837792	-0.0854832206	-2.0211310195	-0.267005
C	 1.7261100155	-1.1107054117	-2.8862842839	 0.064072
C	 3.2358872427	-0.9400253296	-3.0418497192	-0.390822
C	 1.2955850225	-2.3932470903	-2.2303818799	-0.22283
C	 0.6162484565	-2.1312543952	-1.1108876464	 0.242563
C	-0.0030657882	-3.0521622896	-0.1147055852	-0.488957
H	 0.7599348451	 1.8518625973	-0.6557642658	 0.120715
H	-0.9758835214	 1.7932459694	-0.2835225007	 0.122662
H	 0.1922094963	 1.7460224149	 1.0318023983	 0.119274
H	 1.2452569221	-0.9842332943	-3.867792295	 0.099409
H	 3.734475114	-1.0523927422	-2.0751118182	 0.128467
H	 3.6325756665	-1.6932560074	-3.7300821236	 0.119094
H	 3.4658780371	 0.0501440577	-3.4442210746	 0.131459
H	 1.5323155702	-3.3676882613	-2.6384707309	 0.110304
H	 0.4227555521	-2.8824128997	 0.8795828034	 0.145128
H	-1.0759223684	-2.8527252948	-0.0256693478	 0.145278
H	 0.1427484906	-4.0993999921	-0.3899891681	 0.117837
39.0372	103.3484	117.8102	152.9879	190.9144	209.4405	230.6028	278.9551	360.956	424.3391	506.2369	552.961	592.3121	705.1126	746.5704	791.6477	849.4287	884.388	953.208	1012.3361	1040.5148	1053.4153	1067.949	1098.9024	1108.2225	1131.0432	1136.0225	1173.4542	1234.7151	1338.887	1351.1307	1372.8241	1402.3729	1415.5491	1437.4708	1470.5058	1483.6527	1485.9081	1491.3	1494.6974	1498.4509	1712.7573	1775.7865	2994.0981	3010.1635	3041.6182	3042.0014	3065.7653	3086.5146	3098.0665	3116.5645	3126.1129	3127.0209	3217.008
CN=C1OC(C)C=C1C	CN=C1O[C@@H](C)C=C1C	
InChI=1S/C7H11NO/c1-5-4-6(2)9-7(5)8-3/h4,6H,1-3H3	InChI=1S/C7H11NO/c1-5-4-6(2)9-7(5)8-3/h4,6H,1-3H3/t6-/m0/s1
