18
gdb 34622	3.2589	1.17232	0.89772	4.5337	86.07	-0.252	-0.038	0.214	1270.5633	0.14955	-364.842747	-364.83451	-364.833566	-364.876443	30.772	
N	 0.0621585762	-1.1162230543	-0.7447450056	-0.343194
C	 0.0332580254	 0.0035016543	-0.4471966296	 0.21786
C	 0.0424335503	 1.3869784135	-0.0732627348	 0.134149
C	-1.1349474452	 2.0300665985	-0.0377829443	-0.095407
C	-1.4330979109	 3.4664889324	 0.2695457065	-0.315288
C	-0.4572166693	 4.3503546339	 0.99605371	-0.039066
C	 0.7291359626	 4.0794958501	 1.5373988782	-0.063111
C	 1.4946502755	 2.7822369171	 1.5280054202	-0.250224
C	 1.4097183144	 1.9769447045	 0.2212269252	-0.302397
H	-2.0157423557	 1.4512089103	-0.305886266	 0.115263
H	-1.7046676455	 3.9505218648	-0.6849092242	 0.138827
H	-2.3788739526	 3.4899291134	 0.8334713731	 0.134164
H	-0.8324997552	 5.3659598909	 1.1119418946	 0.091697
H	 1.2235307588	 4.896835491	 2.0584300721	 0.090814
H	 2.5510161737	 3.0032750296	 1.7176158959	 0.108627
H	 1.1716840054	 2.1461426582	 2.3632489606	 0.123605
H	 2.1369985444	 1.1614977405	 0.2605213358	 0.125187
H	 1.7110176678	 2.6192850614	-0.6151484577	 0.128493
30.4372	147.7033	166.4204	205.6086	316.4883	323.7724	414.1654	416.2926	558.4001	577.1915	610.0016	678.7195	728.9955	805.6583	854.3648	881.4449	891.6283	945.1083	984.0059	1010.9528	1020.9751	1068.9451	1095.9744	1137.9477	1204.1099	1237.786	1274.0587	1296.2755	1344.5643	1370.9652	1395.8725	1413.7602	1437.0689	1443.2256	1480.5282	1483.7943	1706.1722	1747.5416	2330.0305	2966.3504	2994.6392	3018.0211	3036.163	3061.085	3091.6356	3128.5902	3153.6052	3157.6522
N#CC1=CCC=CCC1	N#CC1=CCC=CCC1	
InChI=1S/C8H9N/c9-7-8-5-3-1-2-4-6-8/h1-2,5H,3-4,6H2	InChI=1S/C8H9N/c9-7-8-5-3-1-2-4-6-8/h1-2,5H,3-4,6H2
