13
gdb 25066	3.9664	1.01096	0.8546	4.6599	64.2	-0.2352	-0.0064	0.2288	1253.0303	0.089981	-452.808933	-452.801177	-452.800233	-452.842223	27.677	
O	-0.0781228369	-0.0002153211	-0.1761167838	-0.385693
C	-0.0575987269	 1.189879036	-0.0538751103	 0.494846
N	-1.0740468005	 2.1164247452	-0.1787076746	-0.42709
C	-0.5776911621	 3.4072158312	 0.0178054605	 0.311817
C	-1.4324541171	 4.6328362136	-0.0263220928	-0.452287
C	-2.1843295824	 4.7591985786	-1.2802647086	 0.259075
N	-2.7904490816	 4.8302653393	-2.2607235139	-0.289945
C	 0.7250918979	 3.2625695109	 0.2916818133	-0.111462
O	 1.0706119856	 1.9327650404	 0.2664484051	-0.204312
H	-1.9872023309	 1.8653670898	-0.5178789252	 0.288201
H	-2.1546611786	 4.6370691405	 0.8012396129	 0.175837
H	-0.7991728215	 5.5158470451	 0.1031534502	 0.178445
H	 1.501612765	 3.9694563404	 0.5265291973	 0.162568
49.7298	91.5141	184.218	280.1329	307.1284	381.3009	424.6514	474.585	524.4364	605.6776	702.845	733.7397	770.4571	778.5373	906.2161	931.828	941.3288	1011.4222	1098.096	1181.9462	1217.0898	1248.0257	1326.1576	1357.2542	1433.2152	1450.8485	1712.4381	1911.629	2367.8203	3024.8518	3093.051	3295.3782	3679.4848
O=C1NC(CC#N)=CO1	O=c1[nH]c(CC#N)co1	
InChI=1S/C5H4N2O2/c6-2-1-4-3-9-5(8)7-4/h3H,1H2,(H,7,8)	InChI=1S/C5H4N2O2/c6-2-1-4-3-9-5(8)7-4/h3H,1H2,(H,7,8)
