17
gdb 112326	3.00818	1.30578	1.01278	5.8	68.62	-0.2529	0.0357	0.2886	1154.5525	0.137364	-455.152837	-455.144698	-455.143754	-455.185904	30.413	
O	-0.1171045249	 1.4916821636	-0.0869654668	-0.424687
C	 0.0642787352	 0.0928239895	 0.0768011157	-0.08479
C	-1.3218367175	-0.5358619292	-0.0081079748	 0.022462
N	-1.9536320643	-0.3270154784	-1.2931325219	-0.318458
C	-2.4992855914	-1.4482594235	-1.8644108903	 0.40492
O	-3.1069093895	-1.5155814384	-2.9001712037	-0.367155
N	-2.220282748	-2.5804155966	-0.9970871963	-0.150232
C	-0.7697148691	-2.8816604092	-0.9882324079	-0.252638
C	-1.3693608756	-2.0601776763	 0.0911119048	-0.054156
H	 0.7463429279	 1.9139767648	-0.110105679	 0.295523
H	 0.7096021712	-0.3242215484	-0.7092457078	 0.094338
H	 0.5122467853	-0.1485259195	 1.0535351849	 0.095439
H	-1.9273826024	-0.1017699574	 0.800759971	 0.099785
H	-2.0513972037	 0.5832776146	-1.7106701134	 0.266319
H	-0.5268711094	-3.9220164052	-0.7967197179	 0.131779
H	-0.1545493379	-2.3972277255	-1.741436423	 0.132982
H	-1.5302323159	-2.4960837047	 1.0711190763	 0.108567
79.5675	119.187	159.1631	234.8393	262.2746	335.471	430.7331	465.695	496.5576	523.5141	664.7394	710.4821	774.3155	810.4692	851.034	872.3029	955.9841	999.9738	1014.8778	1076.2	1088.1944	1096.723	1114.8722	1146.3349	1162.9739	1210.8641	1232.2143	1253.846	1285.2085	1316.0943	1377.2782	1405.9959	1427.3417	1457.8519	1503.1589	1512.5924	1866.1596	2979.1157	2994.8109	3027.6535	3117.8396	3168.6559	3207.6479	3668.914	3836.0664
OCC1NC(=O)N2CC12	OC[C@H]1NC(=O)N2C[C@@H]12	
InChI=1S/C5H8N2O2/c8-2-3-4-1-7(4)5(9)6-3/h3-4,8H,1-2H2,(H,6,9)	InChI=1S/C5H8N2O2/c8-2-3-4-1-7(4)5(9)6-3/h3-4,8H,1-2H2,(H,6,9)/t3-,4+,7?/m1/s1
