17
gdb 84427	2.04243	1.85189	1.55158	3.1253	68.95	-0.2594	-0.0493	0.21	958.052	0.136297	-458.976333	-458.968276	-458.967332	-459.00879	30.814	
O	-0.5383267002	 1.2195141981	 1.1357692044	-0.448483
C	-0.0382143417	 0.1829730826	 0.2946933245	 0.045117
C	 0.7061875123	-0.8918599734	 1.0446435146	-0.0902
C	-0.0405084063	-1.9845931367	 1.2141061552	-0.071518
C	-1.4256048706	-1.8330879701	 0.6154329141	-0.200822
C	-2.4500141678	-1.5196293036	 1.6987850573	 0.170046
O	-2.3966434419	-0.546426272	 2.4146555932	-0.26025
C	-1.209082128	-0.6107092657	-0.35291714	 0.108339
O	-2.3349076083	 0.1846564595	-0.5885923484	-0.438456
H	-1.0130014857	 0.7803709712	 1.863296565	 0.296267
H	 0.5667518911	 0.6941266674	-0.4594395192	 0.093457
H	 1.712330418	-0.7540951447	 1.4230539725	 0.109535
H	 0.2641871974	-2.8804466991	 1.743597401	 0.111894
H	-1.75660848	-2.7260126121	 0.0762208848	 0.085945
H	-3.2817591878	-2.2440920651	 1.81471178	 0.102082
H	-0.8727178696	-1.0317791414	-1.3073374892	 0.096414
H	-2.2241671811	 0.9587453051	-0.01371483	 0.290633
103.2216	153.1747	193.3014	203.9528	287.4944	330.6511	409.2422	479.4513	507.6451	556.7693	663.3596	719.7408	752.6525	764.3119	788.9147	853.8312	892.5562	953.38	978.2079	993.9436	1046.7104	1047.7175	1097.3231	1135.6773	1141.0691	1218.8264	1273.3989	1290.4931	1305.4661	1313.6192	1353.2258	1373.6086	1422.9912	1442.6603	1472.1896	1667.2966	1800.4056	2923.6221	3039.9535	3064.3443	3078.2441	3187.2918	3212.9762	3641.5433	3690.8865
OC1C=CC(C=O)C1O	O[C@H]1C=C[C@@H](C=O)[C@H]1O	
InChI=1S/C6H8O3/c7-3-4-1-2-5(8)6(4)9/h1-6,8-9H	InChI=1S/C6H8O3/c7-3-4-1-2-5(8)6(4)9/h1-6,8-9H/t4-,5-,6+/m0/s1
