23
gdb 89570	4.22356	0.99356	0.94536	0.1965	92.23	-0.2299	0.0271	0.257	1377.0984	0.206955	-351.166165	-351.157483	-351.156539	-351.199507	34.389	
C	-1.0732756488	 0.922328781	-0.132509836	-0.409146
C	 0.0973329659	-0.0377136395	 0.0092837054	 0.063334
C	 1.2959215564	 0.0849749225	-0.9714933791	-0.296055
C	 2.2757995701	-0.2010507126	 0.2071135392	 0.355482
C	 1.0993164201	 0.1658501908	 1.1778160978	-0.286281
C	 2.7784928265	-1.6669955004	 0.3074878284	-0.278498
C	 4.1690600522	-1.5942730712	 0.988742866	-0.263891
C	 4.571067117	-0.1542075926	 0.7727377335	-0.073047
C	 3.5497037895	 0.5857013027	 0.343725639	-0.143121
H	-0.7279827652	 1.9628980357	-0.1399191187	 0.108173
H	-1.6226532566	 0.7480662502	-1.0648157858	 0.111952
H	-1.7826986205	 0.8135831837	 0.695868843	 0.111886
H	-0.2710614921	-1.0699476078	 0.0133579732	 0.068994
H	 1.3335246805	-0.5962710896	-1.8271086292	 0.08959
H	 1.403453321	 1.1113820867	-1.3409139376	 0.089517
H	 1.1475337841	 1.2174052452	 1.4817378623	 0.09001
H	 0.9836816801	-0.4486933551	 2.0755451822	 0.091286
H	 2.0789780131	-2.3209780971	 0.8361042932	 0.092983
H	 2.8963790197	-2.070865571	-0.7042206512	 0.09982
H	 4.1165184167	-1.8243868493	 2.0622813832	 0.104456
H	 4.8816531676	-2.3082152736	 0.5599770666	 0.100619
H	 5.5680931321	 0.2155683064	 0.9872955272	 0.088768
H	 3.5826348905	 1.6543110649	 0.1541391972	 0.08317
75.7288	85.8341	208.526	246.2725	256.2406	313.2217	354.9222	416.0246	446.7964	501.3778	653.7248	713.6068	758.9764	789.6136	828.5195	849.692	871.2285	900.2461	921.3204	944.608	951.9185	958.6119	977.6382	1007.03	1043.5189	1076.845	1085.1756	1115.783	1143.5752	1168.2419	1192.4331	1211.5067	1233.7641	1241.5783	1273.9881	1287.7117	1288.3707	1311.5505	1325.1659	1372.1496	1390.3762	1410.5138	1470.2664	1481.1429	1492.1395	1495.8952	1496.3561	1501.3841	1680.6307	3007.4665	3018.9229	3029.7624	3031.9614	3035.591	3039.459	3053.5526	3083.2478	3084.9013	3086.7635	3089.152	3094.5281	3168.5928	3196.9955
CC1CC2(C1)CCC=C2	C[C@H]1C[C@@]2(C1)CCC=C2	
InChI=1S/C9H14/c1-8-6-9(7-8)4-2-3-5-9/h2,4,8H,3,5-7H2,1H3	InChI=1S/C9H14/c1-8-6-9(7-8)4-2-3-5-9/h2,4,8H,3,5-7H2,1H3/t8-,9-
