15
gdb 11811	3.71127	1.78523	1.37504	2.6139	62.53	-0.245	0.0206	0.2656	889.4345	0.117725	-399.791792	-399.783951	-399.783007	-399.824088	28.618	
O	 0.0051903428	 1.4011277443	-0.1719278012	-0.429337
C	 0.019316373	 0.0022226852	-0.0692202691	-0.132459
C	 0.1746339667	-0.5691700885	 1.3716967678	 0.418651
O	 0.9855418791	-0.4504381719	 2.2519211236	-0.372694
N	-1.0251806737	-1.2270065012	 1.2627234752	-0.400638
C	-1.3706951532	-0.6565276361	-0.0327093795	 0.419055
C	-2.6687679288	-0.0404272399	-0.4255896516	-0.314751
C	-2.1606603976	-1.2990024473	-1.1222503462	-0.338701
H	 0.7571243228	 1.7340503808	 0.3316079093	 0.301683
H	 0.7029540548	-0.462764048	-0.7932102377	 0.095897
H	-1.5776168273	-1.720390705	 1.94963586	 0.253034
H	-3.5121958406	-0.1449678367	 0.2491667225	 0.11694
H	-2.6300822044	 0.9033748169	-0.9583141443	 0.139578
H	-1.7959861852	-1.2172269498	-2.1410404259	 0.126217
H	-2.6675640784	-2.2334022628	-0.903479233	 0.117525
76.8376	127.0654	195.1644	231.9765	252.8821	342.6164	400.9706	510.4977	527.4617	571.3247	729.9567	764.9275	795.4867	877.8729	881.8209	929.7246	973.5379	1014.3366	1053.1847	1073.26	1138.1841	1156.0617	1181.6313	1184.5549	1264.1932	1303.0111	1327.6282	1375.3623	1442.311	1457.504	1515.5032	1895.6007	3010.0219	3127.0555	3133.0325	3208.6007	3224.8192	3598.3661	3800.8119
OC1C(=O)NC11CC1	O[C@H]1C(=O)NC21CC2	
InChI=1S/C5H7NO2/c7-3-4(8)6-5(3)1-2-5/h3,7H,1-2H2,(H,6,8)	InChI=1S/C5H7NO2/c7-3-4(8)6-5(3)1-2-5/h3,7H,1-2H2,(H,6,8)/t3-/m0/s1
