17
gdb 71660	3.22463	1.93932	1.9347	1.8825	68.59	-0.2612	0.0889	0.3501	822.692	0.137891	-421.80614	-421.8	-421.799056	-421.836267	26.355	
C	-0.0432539601	 1.4725785794	-0.0581715315	-0.511638
C	 0.0006584718	-0.0264768113	-0.0055419659	 0.451867
O	-1.2995970904	-0.6239538857	-0.0366861147	-0.262801
C	-0.8691371768	-1.9690039718	 0.0708085468	 0.022286
C	-0.053904912	-2.0584523996	 1.3743198711	-0.101856
C	 1.2542917499	-2.0468932371	 0.6127259178	-0.101865
C	 0.7040514881	-0.7636669725	 1.1914511337	-0.118621
C	 0.5220528369	-1.9567081117	-0.739120637	 0.022284
O	 0.6233704181	-0.606966469	-1.1561797904	-0.262839
H	 0.9717435266	 1.8757597539	-0.0815025478	 0.133628
H	-0.5740290643	 1.7965482044	-0.9560209164	 0.143003
H	-0.561953059	 1.8628302571	 0.8204526165	 0.133496
H	-1.6590659524	-2.675382665	-0.168071315	 0.085192
H	-0.3278820574	-2.4994719778	 2.3233668015	 0.093481
H	 2.2206035147	-2.4769743364	 0.8397117386	 0.093481
H	 1.1757954611	-0.2392954042	 2.00973319	 0.095713
H	 0.7135786852	-2.6544319227	-1.5493799573	 0.085189
175.911	280.5138	290.5809	526.0596	585.3521	615.8748	655.8418	691.7341	727.111	789.1152	791.8605	810.1439	826.696	844.6332	857.1046	875.0333	910.0279	951.4922	997.0013	1003.9862	1031.7514	1039.5532	1049.4004	1082.5651	1126.4108	1147.6179	1162.982	1184.884	1225.1191	1269.9092	1293.3777	1299.4811	1329.8587	1373.1933	1430.2858	1480.1326	1488.6439	3059.5649	3138.2047	3140.4888	3163.6722	3169.7118	3198.4019	3207.9689	3228.1112
CC12OC3C4C(C14)C3O2	C[C@]12O[C@@H]3[C@H]4[C@H]([C@@H]14)[C@@H]3O2	
InChI=1S/C7H8O2/c1-7-4-2-3(4)6(9-7)5(2)8-7/h2-6H,1H3	InChI=1S/C7H8O2/c1-7-4-2-3(4)6(9-7)5(2)8-7/h2-6H,1H3/t2-,3+,4-,5+,6-,7+
