19
gdb 92805	2.9132	1.70395	1.36101	0.8796	81.46	-0.2204	0.0219	0.2423	996.3143	0.160668	-385.838707	-385.831305	-385.830361	-385.870154	30.363	
O	-0.1218938981	 1.5129212286	 0.1034436028	-0.429014
C	 0.0202572117	 0.1023974733	 0.0289242128	 0.070849
C	 0.5065830015	-0.5147763752	 1.3923051773	-0.276063
C	-0.7801574869	-0.7376092051	 2.1905964207	-0.242714
C	-1.7988895127	-0.7342731989	 1.3384274837	 0.332374
C	-3.2281401232	-0.382492857	 1.034052091	-0.19524
C	-3.2116165759	 1.0737385003	 0.6047822741	-0.259888
C	-2.777819658	 0.0424821586	-0.391633225	-0.087827
C	-1.3720871797	-0.540898699	-0.0912077146	-0.028851
H	 0.7324234222	 1.8838747064	 0.3456496163	 0.28026
H	 0.6984047201	-0.1690726578	-0.7933755908	 0.056148
H	 1.0650652558	-1.445906046	 1.2162221806	 0.101321
H	 1.1986131956	 0.1680935826	 1.9029195578	 0.089876
H	-0.8019757895	-0.8051756963	 3.2716646661	 0.090867
H	-4.1345972514	-0.8791624928	 1.3550520841	 0.093001
H	-4.1937641368	 1.4985951956	 0.4177313079	 0.106809
H	-2.4900892244	 1.7575897899	 1.0356309354	 0.133138
H	-3.3076951168	-0.1021396187	-1.3250372915	 0.08448
H	-1.2833041734	-1.5093347284	-0.6015705387	 0.080475
131.1333	183.785	263.6237	293.8019	331.4096	379.7357	462.8329	544.5459	644.3007	675.7992	752.4375	777.4877	812.1187	832.7611	850.6449	879.9249	914.2344	918.1172	938.6893	984.034	997.3412	1020.1713	1047.9654	1068.522	1090.0756	1102.4415	1126.1895	1160.5679	1176.7117	1192.0251	1219.6343	1252.8044	1264.5856	1295.6946	1332.0293	1343.0981	1361.2519	1424.2448	1471.1548	1482.9102	1733.5712	2984.0147	3002.8586	3017.9485	3039.0262	3128.4968	3184.0303	3195.8898	3199.5457	3222.602	3816.493
OC1CC=C2C3CC3C12	O[C@H]1C[CH][C]2[C@H]3C[C@H]3[C@@H]12	
InChI=1S/C8H10O/c9-7-2-1-4-5-3-6(5)8(4)7/h1,5-9H,2-3H2	InChI=1S/C8H10O/c9-7-2-1-4-5-3-6(5)8(4)7/h1,5-9H,2-3H2/t5-,6-,7+,8+/m1/s1
