15
gdb 47115	2.69316	1.88846	1.32696	3.5755	59.78	-0.2623	-0.0107	0.2516	927.0159	0.114662	-494.932534	-494.925563	-494.924619	-494.964797	25.576	
O	 0.1604332363	 0.0723737765	 0.4207108137	-0.327899
C	 0.1006897275	 1.2590287906	 0.3063017911	 0.417028
O	-0.9972696889	 1.9814672927	 0.64932575	-0.217866
C	-0.8287162559	 3.3821578981	 0.3698126508	-0.112089
C	 0.6644573153	 3.6155049402	 0.1006844771	 0.063551
O	 1.3915444934	 4.0199681946	 1.2548728881	-0.264464
C	 2.1718906473	 2.9178120303	 1.6888742034	 0.008487
O	 2.395963217	 2.1072772256	 0.5582468982	-0.230383
C	 1.2105244926	 2.2093318574	-0.2010459223	-0.078061
H	-1.4395495436	 3.6384823595	-0.5025425866	 0.123427
H	-1.1756423612	 3.9508073485	 1.2345069548	 0.142461
H	 0.8255659861	 4.3547907765	-0.687453582	 0.105631
H	 3.1342505224	 3.2757466774	 2.0634034163	 0.13165
H	 1.6382094613	 2.3567430301	 2.4742220214	 0.108911
H	 1.4431764904	 1.9976590819	-1.2456951941	 0.129616
54.9753	142.0802	169.109	306.6357	372.9748	481.3038	576.2727	665.8057	729.8006	751.3383	782.9593	853.7108	900.4042	940.9017	977.2673	1003.6022	1038.0603	1075.1362	1103.1718	1128.2758	1180.1257	1182.5094	1221.8452	1240.4133	1251.9749	1291.2935	1336.1703	1365.1695	1398.7178	1428.0808	1506.4566	1548.9819	1891.6292	2965.152	3049.452	3083.2676	3099.3201	3113.5694	3122.9223
O=C1OCC2OCOC12	O=C1OC[C@H]2OCO[C@@H]12	
InChI=1S/C5H6O4/c6-5-4-3(1-7-5)8-2-9-4/h3-4H,1-2H2	InChI=1S/C5H6O4/c6-5-4-3(1-7-5)8-2-9-4/h3-4H,1-2H2/t3-,4-/m1/s1
