19
gdb 86156	2.78085	1.29849	0.93038	3.4566	78.62	-0.2401	-0.052	0.188	1247.4026	0.159061	-423.063926	-423.055081	-423.054137	-423.097396	33.444	
C	 0.031093999	 1.5675599727	-0.0179158146	-0.39889
C	 0.0986189796	 0.0402532424	-0.0053676006	-0.118785
C	 0.7705461111	-0.5433531977	-1.2595764458	-0.212845
C	 0.7734292412	-2.0695998003	-1.2424978312	 0.064735
O	 1.5815196294	-2.5055782929	-2.3297077601	-0.432002
C	 1.287845377	-2.5927752614	 0.0765568304	-0.077308
C	 1.2944739667	-1.8736167306	 1.2037277107	-0.146743
C	 0.7748133196	-0.4875868102	 1.2646555444	 0.388158
O	 0.8613253596	 0.1731793566	 2.280605953	-0.337545
H	 1.0332102874	 2.0006173181	-0.1029853077	 0.121634
H	-0.5655578617	 1.9209940732	-0.8641392393	 0.107932
H	-0.4102665847	 1.9396412915	 0.9083493095	 0.137241
H	-0.9301773152	-0.3553808776	 0.0360817837	 0.099362
H	 0.2686908888	-0.1878163223	-2.1646706174	 0.10863
H	 1.8133268167	-0.2077893198	-1.3160216815	 0.117303
H	-0.2632955756	-2.429900735	-1.3758159173	 0.083201
H	 1.4876651199	-3.4595302407	-2.4183553172	 0.28455
H	 1.6670905962	-3.6138833111	 0.0752741466	 0.100991
H	 1.685038505	-2.2673353248	 2.1371647544	 0.110381
71.0273	139.3266	192.1191	245.8445	248.586	270.0632	335.4962	377.8095	400.1628	428.7276	533.8963	555.5749	654.6004	732.6485	740.5801	824.1218	903.5879	914.9785	968.6129	1021.0444	1051.3094	1054.2938	1073.8537	1120.9071	1132.6215	1152.2121	1188.1397	1228.9961	1265.1569	1305.727	1336.0781	1348.6276	1374.9313	1396.4744	1409.2422	1425.1459	1489.5629	1494.2222	1499.9802	1684.2696	1774.9296	2928.0107	2971.7088	3038.5322	3043.858	3088.1767	3107.7085	3136.9856	3137.6545	3185.485	3816.2797
CC1CC(O)C=CC1=O	C[C@H]1C[C@@H](O)C=CC1=O	
InChI=1S/C7H10O2/c1-5-4-6(8)2-3-7(5)9/h2-3,5-6,8H,4H2,1H3	InChI=1S/C7H10O2/c1-5-4-6(8)2-3-7(5)9/h2-3,5-6,8H,4H2,1H3/t5-,6-/m0/s1
