18
gdb 75432	3.08654	1.30831	0.99074	1.7357	74.08	-0.245	-0.0281	0.2169	1191.4923	0.147145	-439.111637	-439.102963	-439.102019	-439.145413	31.824	
C	-0.0068704025	 1.5064447384	 0.0475237488	-0.452337
C	-0.0746483933	 0.0105448104	-0.0026594816	 0.365196
N	-1.1619625749	-0.6293675754	 0.0647985307	-0.254598
C	-1.1169488382	-2.0855023304	 0.1003441223	-0.176422
C	-0.6485513111	-2.7254953077	-1.2202431882	-0.302179
C	 0.8391254714	-2.611792443	-1.4910876286	 0.373271
O	 1.4859895607	-3.5297545961	-1.9392883399	-0.29332
C	 1.5295191274	-1.2631697147	-1.2549675893	-0.183619
O	 1.178939333	-0.5730048355	-0.0558482965	-0.260192
H	 0.615240369	 1.8181059503	 0.8932369335	 0.146284
H	 0.4692603368	 1.8998937922	-0.8577518721	 0.133319
H	-1.0066348471	 1.927200577	 0.1502854104	 0.146259
H	-0.4731091774	-2.4297480881	 0.9213273427	 0.118292
H	-2.1294996219	-2.4406321258	 0.3095760832	 0.113906
H	-0.9022533909	-3.7883450372	-1.2524040002	 0.128289
H	-1.1806784426	-2.2337759234	-2.0467724325	 0.13255
H	 2.6038313536	-1.4458159679	-1.2033230993	 0.143745
H	 1.3302665379	-0.6252406731	-2.1308981234	 0.121558
50.2901	137.8356	148.8231	184.0769	266.7693	284.2425	362.957	373.4046	445.1919	481.0749	606.0979	643.3014	680.6424	748.5588	818.2169	849.258	911.6088	976.0264	1002.7414	1052.8937	1083.4111	1094.7419	1114.5195	1181.0986	1200.751	1252.9204	1280.3175	1294.4064	1335.0567	1370.869	1382.9027	1405.0977	1451.4178	1467.1282	1469.9278	1476.5232	1502.2128	1756.6723	1810.1609	2985.6758	3013.2076	3024.6633	3040.1114	3083.2147	3095.7089	3102.9614	3127.848	3161.7633
CC1=NCCC(=O)CO1	CC1=NCCC(=O)CO1	
InChI=1S/C6H9NO2/c1-5-7-3-2-6(8)4-9-5/h2-4H2,1H3	InChI=1S/C6H9NO2/c1-5-7-3-2-6(8)4-9-5/h2-4H2,1H3
