16
gdb 46283	3.23121	1.38887	1.25943	2.5735	70.39	-0.2345	0.0059	0.2405	1023.5813	0.12655	-434.069368	-434.061908	-434.060964	-434.101672	28.075	
N	-0.0314853408	 1.1515571389	-0.426984441	-0.54011
C	 0.0023021839	-0.0347947751	-0.025787779	 0.369056
O	 1.0141904965	-0.7812349639	 0.5348712095	-0.256064
C	 0.1904822573	-1.9921324729	 0.5296333325	-0.126602
C	-1.0108295731	-1.1744688439	-0.008642026	 0.194587
C	-2.2748517878	-1.0215802419	 0.8988968588	-0.235215
N	-3.441439538	-1.178618211	 0.0221222109	-0.234992
C	-2.9845634986	-1.4230294095	-1.1396866646	 0.068423
N	-1.6049210157	-1.5640617191	-1.2774684796	-0.360288
H	 0.8629025893	 1.6261578032	-0.2937358522	 0.233268
H	 0.5910813607	-2.7389119439	-0.1599301388	 0.124596
H	 0.0906034517	-2.4034931146	 1.5372941312	 0.122967
H	-2.2874345864	-1.7905140176	 1.6801160704	 0.117975
H	-2.305381183	-0.0461134211	 1.3935241953	 0.137543
H	-3.6110490287	-1.5753766077	-2.0136681316	 0.131462
H	-1.1742288573	-1.21557582	-2.1231458258	 0.253392
88.2532	116.3647	177.0999	263.6602	334.1546	443.6913	492.7936	509.204	601.0213	676.6759	761.1063	830.024	851.0386	872.7751	902.5004	949.8704	964.2146	967.3972	986.0485	1008.9602	1096.0272	1117.7812	1147.2022	1174.3899	1204.3904	1223.7358	1243.4887	1323.8189	1345.3789	1360.8484	1424.8308	1485.151	1510.7028	1706.3	1822.0563	3037.6356	3059.9413	3082.8249	3125.779	3189.7419	3479.9193	3590.3039
N=C1OCC11CN=CN1	[NH][C]1OC[C@]21CN=CN2	
InChI=1S/C5H7N3O/c6-4-5(2-9-4)1-7-3-8-5/h3,6H,1-2H2,(H,7,8)	InChI=1S/C5H7N3O/c6-4-5(2-9-4)1-7-3-8-5/h3,6H,1-2H2,(H,7,8)/t5-/m0/s1
