13
gdb 10011	3.4256	1.36361	0.98907	4.4305	66.33	-0.2744	-0.0567	0.2177	1106.4082	0.091959	-398.582726	-398.574118	-398.573174	-398.616468	28.943	
C	 0.074649288	 1.5107323312	-0.1453674087	-0.336533
N	 0.0452854208	 0.0697448685	-0.2821701631	-0.282642
C	-1.030287756	-0.5738067745	-0.1296418679	 0.27982
O	-1.0593334514	-1.9480674256	-0.2576063965	-0.208884
C	 0.0921403017	-2.6588592946	-0.0121759284	 0.176715
O	 0.1487754784	-3.8238504729	-0.2458665356	-0.251149
C	-2.3389646092	-0.0601336993	 0.1498211168	 0.306128
C	-3.4273109004	 0.3961132837	 0.3798957189	-0.444431
H	 0.7790410314	 1.7752330383	 0.6508950528	 0.141549
H	 0.4683446597	 1.9409647806	-1.0724229197	 0.143886
H	-0.8991379447	 1.9638747266	 0.0750654926	 0.126957
H	 0.8854987968	-2.035901115	 0.4201611165	 0.127474
H	-4.3940075852	 0.7883204331	 0.5842922221	 0.22111
81.6338	105.9445	120.155	149.0952	193.8206	262.9593	307.7906	359.011	485.7966	528.9703	668.8215	677.4842	684.8621	722.1941	855.5969	1036.9408	1072.8567	1112.0546	1132.4498	1157.4975	1234.5175	1400.1777	1440.3184	1486.3005	1495.3409	1724.8772	1873.5572	2232.0235	3017.0927	3070.1137	3088.5385	3091.8692	3494.8711
CN=C(OC=O)C#C	CN=C(OC=O)C#C	
InChI=1S/C5H5NO2/c1-3-5(6-2)8-4-7/h1,4H,2H3	InChI=1S/C5H5NO2/c1-3-5(6-2)8-4-7/h1,4H,2H3
