18
gdb 32441	3.21311	1.20382	0.88827	0.4273	76.81	-0.1814	0.0426	0.2239	1294.15	0.148938	-435.273832	-435.264504	-435.26356	-435.307601	34.762	
C	-0.0750697071	 1.430581864	 0.0563524993	-0.324271
N	 0.1070844601	-0.0031876536	-0.0852510112	-0.398168
C	 0.6549985611	-0.6787859692	 1.0052480536	 0.248448
C	 1.2572988477	-0.2006800708	 2.1323689105	-0.123561
O	 1.6873956854	-1.2358940336	 2.9203041711	-0.189518
C	 1.3514096512	-2.3997740652	 2.2698398389	 0.233356
N	 1.6484258231	-3.641398154	 2.8394105935	-0.601732
C	 0.7190475008	-2.1137010212	 1.099312686	 0.094279
N	 0.144242188	-2.9988084379	 0.1698755493	-0.628408
H	 0.9038008223	 1.9145419375	 0.1471405294	 0.130431
H	-0.5625293907	 1.8257269378	-0.8380096355	 0.120732
H	-0.6719317945	 1.7127996302	 0.9395719384	 0.108971
H	-0.7240477096	-0.4745204179	-0.4217494292	 0.237393
H	 1.4644646271	 0.7901698336	 2.4970782605	 0.118569
H	 2.6404622	-3.7482696839	 3.0299179601	 0.242554
H	 1.151569277	-3.7994719365	 3.7117941715	 0.242898
H	 0.353948314	-3.9576095463	 0.4270961825	 0.24658
H	 0.4928488941	-2.8303717732	-0.7688960188	 0.241447
84.0623	153.5418	166.9898	208.5185	236.1567	245.9203	299.0432	317.6459	348.4313	395.0665	531.1578	583.8294	599.74	655.0433	676.6477	724.3494	760.5361	780.612	805.6508	872.2652	976.4947	1080.2707	1137.1565	1151.2961	1157.1348	1180.1803	1213.3677	1248.6302	1304.5888	1323.1311	1443.9093	1456.8608	1482.0124	1510.5061	1524.7244	1630.1154	1634.9016	1660.114	1739.4349	2966.9316	3060.2806	3116.8885	3285.4069	3480.2992	3493.3614	3541.9264	3545.6715	3585.4073
CNC1=COC(N)=C1N	CNc1coc(N)c1N	
InChI=1S/C5H9N3O/c1-8-3-2-9-5(7)4(3)6/h2,8H,6-7H2,1H3	InChI=1S/C5H9N3O/c1-8-3-2-9-5(7)4(3)6/h2,8H,6-7H2,1H3
