16
gdb 30585	6.70248	0.66001	0.60534	1.5911	84.07	-0.2248	-0.0114	0.2134	1797.3003	0.124733	-400.759608	-400.751081	-400.750137	-400.794622	29.96	
C	-0.0503755785	 1.5359785317	 0.0761669259	-0.36672
C	 0.0112870291	 0.0003416419	-0.0174653656	-0.329686
C	 0.6937048305	-0.4723253355	-1.2154164685	 0.26277
C	 1.2604911681	-0.851391953	-2.2105224387	-0.137043
C	 1.9238196591	-1.2996096427	-3.3751121946	 0.115253
C	 2.4857538207	-0.5606639392	-4.3726591682	-0.124856
O	 3.013618851	-1.4134277333	-5.2945572972	-0.133675
C	 2.7415104937	-2.6460973435	-4.8029204297	 0.061385
N	 2.1055947446	-2.6571441353	-3.6821269148	-0.300077
H	 0.9549325663	 1.965431614	 0.0927918324	 0.129498
H	-0.5837888845	 1.9568855149	-0.7803716069	 0.129498
H	-0.5702878568	 1.8394233426	 0.9894060524	 0.117629
H	 0.5175532525	-0.4024610522	 0.8694369387	 0.134939
H	-1.0063171858	-0.4109273865	 0.0047002523	 0.134939
H	 2.5884155423	 0.4927502965	-4.5639169802	 0.153331
H	 3.0791659177	-3.4859020003	-5.3897344172	 0.152815
25.5247	71.9774	103.417	188.1497	219.5529	315.5797	416.4472	473.1958	506.2894	572.763	637.0414	706.6463	781.997	786.3487	847.6928	879.1672	932.0787	976.0713	1047.8383	1088.2943	1096.8657	1102.9163	1134.9624	1239.4447	1283.4993	1285.6204	1336.2617	1352.9313	1410.3823	1473.8914	1495.4627	1505.5599	1562.0998	1600.2968	2360.6992	3018.9933	3045.8865	3045.9642	3120.0607	3124.343	3277.2023	3302.0789
CCC#CC1=COC=N1	CCC#Cc1cocn1	
InChI=1S/C7H7NO/c1-2-3-4-7-5-9-6-8-7/h5-6H,2H2,1H3	InChI=1S/C7H7NO/c1-2-3-4-7-5-9-6-8-7/h5-6H,2H2,1H3
