18
gdb 98870	4.22703	1.03127	0.84697	2.0437	76.6	-0.2308	-0.0006	0.2301	1351.0484	0.149205	-435.316044	-435.306855	-435.305911	-435.351091	31.744	
C	-0.0212350615	 1.4733277971	-0.0494449734	-0.31875
N	-0.0167202841	 0.0191341577	-0.0367086847	-0.364473
C	-1.2147624701	-0.6528462817	 0.0521586375	 0.495546
O	-2.2860849364	-0.1041147711	 0.2314421399	-0.401399
N	-1.1237624535	-2.0382516967	-0.0604065033	-0.163902
C	-2.3248572018	-2.8870725464	-0.02808141	-0.178165
C	-1.6895025601	-4.3042616887	-0.0665404901	-0.177059
N	-0.2383593495	-4.124256673	 0.1478481328	-0.262492
C	-0.0237302275	-2.870753554	 0.1263881115	 0.073851
H	 0.9661780663	 1.8387017771	 0.2433825269	 0.123891
H	-0.2789037598	 1.8889413945	-1.032199655	 0.126647
H	-0.7625272897	 1.8231347357	 0.6689676037	 0.164993
H	 0.7317484268	-0.431273436	-0.5379238715	 0.24662
H	-2.8948632804	-2.6933867853	 0.8854869127	 0.132667
H	-2.9726459652	-2.6703880448	-0.8797377617	 0.12972
H	-2.0979811127	-4.9659986555	 0.7020034386	 0.122591
H	-1.8456320288	-4.7981588688	-1.0325431989	 0.119774
H	 0.9594549479	-2.43321254	 0.2628106651	 0.12994
71.0848	74.2709	88.5384	132.1018	157.5055	198.531	302.1609	381.1831	475.6747	502.4379	529.5243	739.7951	761.5908	814.3794	838.2397	918.0336	941.5748	952.7706	973.3512	1023.3111	1113.3714	1149.3613	1166.4963	1187.0144	1212.4291	1227.8464	1259.6026	1319.3496	1335.4273	1354.2153	1397.7668	1446.2286	1486.375	1497.2895	1505.0459	1525.8783	1550.4971	1694.9213	1780.0856	3021.2436	3040.5152	3058.85	3085.3007	3098.9863	3111.347	3157.8729	3198.5466	3635.398
CNC(=O)N1CCN=C1	CNC(=O)N1CCN=C1	
InChI=1S/C5H9N3O/c1-6-5(9)8-3-2-7-4-8/h4H,2-3H2,1H3,(H,6,9)	InChI=1S/C5H9N3O/c1-6-5(9)8-3-2-7-4-8/h4H,2-3H2,1H3,(H,6,9)
