21
gdb 57051	2.21229	1.3397	1.0685	4.4056	83.27	-0.2246	0.0417	0.2663	1250.4884	0.182118	-383.267203	-383.257492	-383.256548	-383.301984	35.417	
C	 0.0752298124	 1.5902253562	-0.0703344488	-0.401973
C	 0.0105787834	 0.0513204457	-0.0253009715	-0.148574
C	 0.5420376907	-0.519286261	-1.2686270021	 0.283654
N	 0.9393962677	-0.9697909154	-2.2560308827	-0.338815
C	 0.7148979749	-0.546055041	 1.2094031088	 0.058718
C	 0.8928574828	-2.0830150115	 1.3009387128	-0.279901
C	 2.3397194385	-1.7798040409	 1.7540926551	-0.154872
N	 2.1799599211	-0.3922199828	 1.2719684418	-0.061883
C	 2.7568668352	 0.664021596	 2.0764343334	-0.328658
H	 1.1067113754	 1.9286237371	-0.1897957147	 0.150171
H	-0.5085619479	 1.9803586539	-0.9075561583	 0.136924
H	-0.3279774861	 2.0075192699	 0.8571146928	 0.121456
H	-1.0439374432	-0.2518843951	 0.0351791537	 0.123922
H	 0.2060444889	-0.141781791	 2.1020103732	 0.060146
H	 0.2507695226	-2.6077929851	 2.0082295581	 0.107186
H	 0.8440662736	-2.572730719	 0.326982853	 0.135237
H	 2.4575021109	-1.8425088337	 2.8477320867	 0.086161
H	 3.1534613948	-2.3359618506	 1.2785244485	 0.112252
H	 3.8462992958	 0.5551964817	 2.0910723804	 0.127714
H	 2.5278869223	 1.6445600742	 1.6495993777	 0.120979
H	 2.3995825361	 0.6531103323	 3.1242168323	 0.090156
55.3319	96.1956	156.8424	174.192	208.252	246.1897	251.5935	300.0227	318.9099	397.8638	418.5906	571.5485	640.8532	685.9361	730.1939	803.9034	864.7556	931.8872	959.7857	985.3943	1021.7233	1025.49	1070.0945	1108.2159	1139.0658	1156.1833	1172.0279	1204.0603	1222.9916	1246.7919	1261.1266	1293.0853	1305.9205	1319.3994	1345.7134	1384.7211	1407.4574	1454.455	1485.5451	1486.9154	1492.7717	1497.9316	1507.5791	1525.789	2357.004	2922.8969	2943.4156	2976.1745	3020.358	3049.0359	3065.7604	3068.5544	3088.2927	3109.4133	3123.0212	3137.1194	3146.0084
CC(C#N)C1CCN1C	C[C@@H](C#N)[C@H]1CCN1C	
InChI=1S/C7H12N2/c1-6(5-8)7-3-4-9(7)2/h6-7H,3-4H2,1-2H3	InChI=1S/C7H12N2/c1-6(5-8)7-3-4-9(7)2/h6-7H,3-4H2,1-2H3/t6-,7+/m0/s1
