20
gdb 7776	3.36944	1.66173	1.17199	1.2436	77.97	-0.2324	0.0297	0.262	1071.4471	0.177027	-349.026684	-349.018391	-349.017447	-349.058979	31.588	
C	 0.0214230122	 1.5289818253	 0.0558717244	-0.401103
C	 0.0368305073	 0.0095727609	-0.0121445628	 0.135075
C	 0.7765706066	-0.5344836314	-1.2405601115	-0.291114
C	 1.0346327361	-2.0192081909	-1.1188662322	 0.307045
C	 1.4108185727	-2.7536084803	-2.3748737002	-0.476745
C	 0.9227772552	-2.6129568566	 0.0694633665	-0.159036
C	 0.5863921706	-1.8601241088	 1.3267397464	-0.119569
O	 0.6598143583	-0.4563437996	 1.1788970143	-0.260407
H	 1.0433930787	 1.9147534038	 0.1257614861	 0.123011
H	-0.4489750009	 1.9501154667	-0.8379490777	 0.11141
H	-0.5327741799	 1.8675895379	 0.9352708308	 0.120939
H	-1.0018741459	-0.3649993176	-0.0426256936	 0.061729
H	 0.184520659	-0.3305330329	-2.1432195099	 0.096412
H	 1.7263432239	 0.0045607589	-1.3718036987	 0.106461
H	 2.3154640472	-2.3251856872	-2.8261586163	 0.122949
H	 1.59725652	-3.8140663264	-2.1842829226	 0.119101
H	 0.6204387524	-2.6747696537	-3.1327427085	 0.120628
H	 1.0760301318	-3.6848769399	 0.1736960787	 0.079468
H	-0.4175823526	-2.1577018155	 1.6858266019	 0.091018
H	 1.2917152674	-2.1178253828	 2.1265730749	 0.112727
112.3051	168.4523	200.9916	226.2801	259.0406	272.7706	362.4569	427.6191	452.1726	477.5279	513.1988	704.0277	801.8886	832.3558	871.6898	902.957	928.1732	970.9679	1035.203	1043.7409	1045.8634	1078.0715	1125.3604	1158.4083	1164.6055	1187.6276	1238.0428	1269.6914	1308.2514	1356.7676	1377.3482	1394.3113	1405.6451	1411.3872	1416.104	1466.9674	1478.6982	1483.2112	1490.0129	1491.1241	1500.4321	1748.8448	2919.4479	2942.3166	3000.058	3012.9985	3035.9396	3040.6176	3041.5508	3057.9317	3108.8874	3113.7646	3120.6472	3151.2531
CC1CC(C)=CCO1	C[C@H]1CC(=CCO1)C	
InChI=1S/C7H12O/c1-6-3-4-8-7(2)5-6/h3,7H,4-5H2,1-2H3	InChI=1S/C7H12O/c1-6-3-4-8-7(2)5-6/h3,7H,4-5H2,1-2H3/t7-/m0/s1
