18
gdb 105959	3.04147	1.58067	1.23461	2.1227	75.04	-0.1966	0.067	0.2636	1055.8997	0.145577	-401.81075	-401.802457	-401.801513	-401.843697	31.335	
C	 0.0036705043	 1.4110477018	-0.0164857005	-0.263533
O	 0.0877881	-0.0026551395	-0.013281051	-0.275762
C	 0.6880857268	-0.5327551625	 1.0904622377	 0.395276
C	 1.973439745	-0.191146133	 1.8677979362	-0.225697
C	 0.622730926	-0.2819794275	 2.5760625622	-0.116079
N	 0.8190534708	-1.7653787149	 2.8840005235	-0.213914
C	 2.1453758459	-1.6999016448	 2.1605333242	-0.096448
C	 0.908770433	-2.0381710094	 1.4009971294	 0.265137
C	 0.4070028044	-3.2877741831	 0.7647200002	-0.526818
H	 1.0014396466	 1.8713264722	 0.0003470132	 0.117968
H	-0.5062723482	 1.6954278747	-0.9384052645	 0.137016
H	-0.5733598154	 1.7798242116	 0.8428593292	 0.119802
H	 2.6647339361	 0.634405245	 1.7800790446	 0.097087
H	 0.0979390122	 0.4136963695	 3.2190950622	 0.100338
H	 2.9948898064	-2.3104538771	 2.4480940638	 0.091992
H	 0.7014505783	-4.1526838342	 1.3673046374	 0.133894
H	-0.6856791736	-3.2811416567	 0.6907056177	 0.132062
H	 0.8172900214	-3.4115421121	-0.2430388453	 0.127678
66.9072	153.2321	184.0585	197.3613	244.8195	264.5	365.2063	448.9648	574.1567	648.0789	666.3164	740.9193	767.3577	799.698	852.8371	869.9958	900.0164	917.1609	966.9572	976.5304	1006.6138	1028.7481	1057.877	1083.8438	1110.526	1169.6587	1178.1839	1202.3862	1230.4994	1243.111	1284.2562	1393.4632	1417.6799	1442.8102	1477.0762	1486.4381	1490.4888	1503.5423	1506.3987	2994.8109	3031.8666	3049.6889	3097.6354	3110.0699	3132.7968	3161.7871	3183.0104	3220.4759
COC12C3C1N1C3C21C	CO[C@@]12[C@H]3[C@@H]1N1[C@H]3[C@]21C	
InChI=1S/C7H9NO/c1-6-4-3-5(8(4)6)7(3,6)9-2/h3-5H,1-2H3	InChI=1S/C7H9NO/c1-6-4-3-5(8(4)6)7(3,6)9-2/h3-5H,1-2H3/t3-,4-,5+,6-,7+,8?/m1/s1
