20
gdb 110247	3.0644	1.15179	0.98437	2.1951	81.33	-0.2432	0.0043	0.2475	1291.2228	0.169538	-403.092704	-403.083647	-403.082703	-403.126534	33.921	
C	 0.070304533	 1.5091038332	-0.1978884669	-0.379308
C	 0.0005022451	 0.0227308282	 0.1703169342	-0.220576
C	-1.4183413295	-0.5268956884	 0.0983444258	 0.036524
C	-2.0418375887	-0.8598187471	-1.2974935458	-0.15824
N	-1.1135750157	-2.0657324842	-1.3268719886	-0.094074
C	-1.4523357644	-3.1894884952	-2.2030574689	-0.341244
C	-1.6379736043	-2.0725484367	 0.1031145134	-0.173204
C	-3.0209894129	-1.795271257	-0.5416943802	 0.426144
O	-4.1251940056	-2.2373911396	-0.6066472549	-0.324248
H	 1.0924644433	 1.8882271924	-0.1048519373	 0.116101
H	-0.2536162806	 1.6782484213	-1.2303819752	 0.117335
H	-0.5695107474	 2.1151962979	 0.4534346676	 0.114245
H	 0.6491276879	-0.5618273063	-0.4857641321	 0.120806
H	 0.3707631488	-0.1161729058	 1.1941767972	 0.09678
H	-2.0961100547	 0.0186767281	 0.7623268734	 0.083804
H	-2.1830570709	-0.2184931373	-2.1662544365	 0.096456
H	-1.2014176939	-2.9110456039	-3.2310328835	 0.128766
H	-0.8271895111	-4.0430306541	-1.9240944447	 0.128984
H	-2.5066459588	-3.503380547	-2.1731219247	 0.129375
H	-1.3142130594	-2.8126510786	 0.8338137576	 0.095572
77.0495	122.5566	160.1631	192.8986	199.7395	260.9812	300.5907	359.7812	395.282	498.684	543.2374	676.5153	704.8867	752.9146	800.4048	802.2504	828.9943	875.8316	956.1945	985.4816	1050.1723	1056.546	1077.3727	1099.0895	1121.737	1123.441	1168.1084	1184.3582	1188.0639	1205.4356	1212.034	1254.9442	1288.545	1346.609	1407.5983	1417.2927	1450.3234	1488.0739	1494.1681	1500.1099	1501.7238	1505.444	1899.1169	2991.3174	3028.1279	3030.9719	3064.7584	3079.0629	3088.0324	3105.3127	3111.1481	3114.848	3132.7619	3137.6749
CCC1C2N(C)C1C2=O	CC[C@H]1[C@H]2N(C)[C@@H]1C2=O	
InChI=1S/C7H11NO/c1-3-4-5-7(9)6(4)8(5)2/h4-6H,3H2,1-2H3	InChI=1S/C7H11NO/c1-3-4-5-7(9)6(4)8(5)2/h4-6H,3H2,1-2H3/t4-,5+,6-
