14
gdb 12685	2.7869	2.42034	1.56789	2.7671	53.	-0.2811	-0.0058	0.2753	796.3247	0.107909	-456.850114	-456.843142	-456.842198	-456.881256	26.172	
O	-0.0521455657	 1.4621563135	 0.5358180987	-0.440181
C	 0.1262447766	 0.1371176574	 0.0951351084	 0.087472
C	 0.7200835764	-0.6978729973	 1.2377921824	-0.096327
O	-0.4026473956	-1.1260091779	 2.0482157742	-0.216394
C	-1.5486155656	-0.9597924293	 1.3658985242	 0.429249
O	-2.6481488648	-1.0892116247	 1.8281291094	-0.359024
C	-1.2376067355	-0.5448437702	-0.0717753482	-0.036313
O	-2.2257422262	 0.3131326092	-0.5803363586	-0.439815
H	-0.8721384299	 1.769295152	 0.1226344517	 0.29687
H	 0.7510039377	 0.0883988023	-0.8063506579	 0.086509
H	 1.2495794114	-1.5835851819	 0.8724625996	 0.122353
H	 1.3794162248	-0.103452571	 1.8710803692	 0.148639
H	-1.1384582666	-1.454507482	-0.685063732	 0.110425
H	-3.0151803773	 0.1605397498	-0.0386964011	 0.306539
112.5476	195.3397	263.2394	273.0039	363.9942	427.0577	501.7043	532.3451	555.6054	634.3448	733.7423	782.1348	871.3242	891.5947	970.0705	993.8674	1048.4055	1140.0605	1155.2498	1199.0468	1200.4038	1238.2926	1280.1077	1346.0493	1375.1032	1402.3005	1412.5621	1428.3073	1503.359	1873.6983	2985.8137	3021.1726	3062.0333	3139.1122	3718.4018	3734.9658
OC1COC(=O)C1O	O[C@H]1COC(=O)[C@H]1O	
InChI=1S/C4H6O4/c5-2-1-8-4(7)3(2)6/h2-3,5-6H,1H2	InChI=1S/C4H6O4/c5-2-1-8-4(7)3(2)6/h2-3,5-6H,1H2/t2-,3-/m0/s1
