23
gdb 78237	2.12411	1.60526	1.21276	1.3927	85.3	-0.2379	0.0844	0.3223	1185.8669	0.205705	-388.29959	-388.290264	-388.289319	-388.333082	36.243	
C	-0.1609780447	 1.6311722431	-0.0275219904	-0.424939
C	-0.0228555911	 0.1227929677	 0.0063059954	-0.043068
C	 1.2459722182	-0.615485699	-0.3556592591	-0.074064
C	 0.7431542481	-0.6294985631	 1.0708559	-0.07407
C	 1.763862101	 0.1353542238	 1.8960778206	 0.119536
C	 2.535410326	-0.7584682509	 2.8678015643	-0.400479
O	 2.6416119182	 0.7681809225	 0.9517953996	-0.288216
C	 2.5537975633	 0.1573652042	-0.3450342186	 0.119521
C	 3.769610334	-0.7240653343	-0.6336958286	-0.400472
H	 0.7524100064	 2.1324464882	 0.2990873265	 0.145355
H	-0.3923129805	 1.9749450714	-1.0418332192	 0.112397
H	-0.9789283575	 1.9585835983	 0.6238499683	 0.112402
H	-0.9225369111	-0.3974497051	-0.3159318061	 0.081372
H	 1.1849229102	-1.4943136762	-0.9881223274	 0.082595
H	 0.3044753735	-1.518855585	 1.5098099199	 0.082596
H	 1.3000566346	 0.952379368	 2.4662490021	 0.076756
H	 2.9613230219	-1.6273936251	 2.356391144	 0.116595
H	 3.3519222915	-0.1936188555	 3.3257725675	 0.121954
H	 1.8762175823	-1.1186569988	 3.6654165195	 0.109463
H	 2.5449447226	 0.9870676561	-1.0656313138	 0.076755
H	 3.7863349	-1.6041349669	 0.01681624	 0.116601
H	 3.7581644815	-1.0666006815	-1.674368817	 0.109461
H	 4.6893471715	-0.1562150818	-0.4690277576	 0.121949
113.6056	128.0861	200.7507	205.6038	219.3525	237.7613	280.6159	328.0545	355.4037	425.0114	492.9922	576.1077	701.6258	708.4745	766.655	779.8903	820.7891	873.4128	902.6133	940.6999	976.7171	1005.0125	1009.6076	1041.6655	1067.6427	1100.1916	1106.4939	1119.0913	1130.8273	1140.4076	1157.963	1158.2459	1223.0638	1293.7105	1342.8378	1345.3158	1358.5646	1391.9797	1397.0984	1403.0998	1403.5836	1418.9568	1438.3797	1483.6626	1489.4848	1492.2352	1498.5091	1502.2551	1508.2817	3001.0273	3005.0621	3032.2179	3033.1916	3035.0159	3085.7724	3102.4224	3106.2314	3118.0824	3118.1652	3120.643	3135.7261	3163.6743	3174.2884
CC1C2C1C(C)OC2C	C[C@H]1[C@@H]2[C@H]1[C@@H](C)O[C@H]2C	
InChI=1S/C8H14O/c1-4-7-5(2)9-6(3)8(4)7/h4-8H,1-3H3	InChI=1S/C8H14O/c1-4-7-5(2)9-6(3)8(4)7/h4-8H,1-3H3/t4-,5-,6+,7-,8+
