18
gdb 103225	3.93445	1.27832	1.14255	3.9358	72.28	-0.2256	0.0548	0.2804	1095.8329	0.147255	-438.967207	-438.95938	-438.958436	-438.999303	30.985	
O	-0.112330656	 1.5046125857	-0.0568734513	-0.433938
C	 0.0203405044	 0.0922622514	 0.1100290098	-0.172457
C	-1.3897808399	-0.4729965647	 0.0287993365	 0.472883
O	-2.2157539356	 0.1603965736	 0.9638376528	-0.491308
C	-1.9804838031	-0.7601242073	-1.3713827605	-0.080112
C	-1.1487347688	-2.0661304457	-1.5563891043	-0.0821
C	-2.4361323778	-2.822550862	-1.8512253382	-0.188007
N	-2.9278153606	-1.8485811194	-0.7861655942	-0.153864
C	-1.5620273575	-1.9910391231	-0.0527072195	-0.081287
H	 0.6992669964	 1.9276690626	 0.2360133793	 0.296558
H	 0.6724169584	-0.3379281407	-0.6615017605	 0.09702
H	 0.4427376451	-0.1472453046	 1.0966130157	 0.100257
H	-1.9650146033	 1.0933013865	 0.941625217	 0.286252
H	-2.3362200792	-0.0758887723	-2.1434121256	 0.084504
H	-0.1442399343	-2.1786347725	-1.9787289131	 0.063768
H	-2.9104624429	-2.6769269573	-2.827418166	 0.100615
H	-2.5022777786	-3.8723498353	-1.5461901135	 0.099918
H	-1.4280388267	-2.7487129848	 0.7220852855	 0.081299
99.4369	181.2262	225.9567	261.5424	312.3011	359.9245	397.8398	463.8989	515.4425	565.332	690.3565	739.772	796.4036	839.0154	845.1704	887.0586	931.5283	932.556	1012.1367	1027.8892	1037.3784	1064.3145	1071.5044	1090.913	1110.4414	1147.7116	1160.779	1174.2541	1186.1666	1190.8847	1248.0193	1260.5351	1274.1208	1290.4958	1315.9804	1426.6973	1459.1429	1508.3373	1521.1301	2995.2147	3028.7928	3038.4092	3044.473	3092.3734	3097.0267	3107.359	3766.3503	3843.7979
OCC1(O)C2C3CN2C13	OC[C@@]1(O)[C@H]2[C@@H]3CN2[C@H]13	
InChI=1S/C6H9NO2/c8-2-6(9)4-3-1-7(4)5(3)6/h3-5,8-9H,1-2H2	InChI=1S/C6H9NO2/c8-2-6(9)4-3-1-7(4)5(3)6/h3-5,8-9H,1-2H2/t3-,4+,5-,6+
