17
gdb 72137	2.13239	2.04825	1.78453	2.3746	66.86	-0.2319	0.0506	0.2825	886.4707	0.136188	-458.910402	-458.903108	-458.902164	-458.941505	30.026	
O	 0.0702183355	 1.3953259567	 0.0959240666	-0.483619
C	 0.0240209995	 0.0165107812	-0.0377748042	 0.313583
C	 0.5131953989	-0.8136806196	-1.2307761542	-0.323736
C	-0.1971749404	-1.948407914	-0.4503286805	 0.041683
O	 0.634895485	-2.0979442891	 0.7097888444	-0.264849
C	 0.3699143018	-0.8044525937	 1.2730215225	 0.041686
C	-1.1380612707	-0.8900198616	 1.6194834506	-0.323747
C	-1.2648631445	-0.9099148616	 0.0913263433	 0.313572
O	-2.4310582265	-0.8154378695	-0.6517842431	-0.483622
H	-0.2914792634	 1.789012833	-0.7053643324	 0.286257
H	-0.0324501577	-0.5456011063	-2.1406502148	 0.104013
H	 1.5813183211	-0.933340036	-1.4247602352	 0.10431
H	-0.4704094915	-2.904465759	-0.8903384277	 0.08994
H	 1.1354533565	-0.4959909434	 1.9809148957	 0.089943
H	-1.4660396219	-1.7439671519	 2.2161747476	 0.104312
H	-1.5132273394	 0.0531387958	 2.0283474145	 0.104011
H	-2.9390820421	-0.065949341	-0.3230709531	 0.286261
183.5596	251.5116	268.0461	309.3125	364.0926	364.1421	447.109	505.3757	542.2003	590.7682	658.0308	663.352	731.7678	839.6047	869.5198	922.2993	927.3755	955.4743	964.4907	999.4685	1035.6199	1085.2456	1085.7575	1095.4216	1126.3844	1158.7025	1199.4557	1211.8029	1229.5912	1249.3726	1290.0929	1304.9768	1349.1854	1375.3864	1381.5209	1475.8486	1485.0285	3057.2856	3058.1871	3124.3015	3125.1046	3153.9192	3155.4873	3804.0774	3804.5605
OC12CC3OC1CC23O	O[C@@]12C[C@H]3O[C@@H]1C[C@@]23O	
InChI=1S/C6H8O3/c7-5-1-3-6(5,8)2-4(5)9-3/h3-4,7-8H,1-2H2	InChI=1S/C6H8O3/c7-5-1-3-6(5,8)2-4(5)9-3/h3-4,7-8H,1-2H2/t3-,4-,5+,6+/m1/s1
