13
gdb 129537	5.07568	1.03581	1.01165	1.8391	59.44	-0.2626	0.0036	0.2662	1152.8464	0.091113	-486.123328	-486.115542	-486.114597	-486.157021	27.411	
N	-0.0944992507	 1.2676722921	 0.2158245833	-0.562441
C	-0.016265421	-0.0184111709	-0.2138680271	 0.487337
O	 0.6123290157	-0.4330726748	-1.1480857855	-0.36854
O	-0.7646342297	-0.8126076888	 0.6418386621	-0.288084
C	-0.8467576786	-2.1282227848	 0.3193964737	 0.463068
N	-0.1166546981	-3.0300171009	 0.9464453349	-0.270551
N	-0.5667379806	-4.1729116947	 0.3732618101	-0.175973
C	-1.5169350117	-3.8993157598	-0.5414853355	 0.030542
N	-1.7264201555	-2.5981110194	-0.5982864087	-0.305487
H	 0.275657579	 1.9745472701	-0.394580381	 0.275442
H	-0.790528369	 1.5238636915	 0.8941485389	 0.27312
H	-0.1803698735	-5.0583660114	 0.6561863745	 0.287761
H	-2.0184389262	-4.6572442281	-1.1237854698	 0.153806
38.5217	72.769	121.1051	268.0495	347.1532	395.7165	474.2047	523.2202	534.812	622.8582	682.5379	714.7217	766.907	840.0577	855.6363	946.4277	995.7069	1045.0245	1109.5886	1116.2644	1182.621	1303.8818	1324.755	1361.6737	1476.1299	1505.8948	1567.8291	1613.1171	1876.827	3262.9156	3623.6725	3667.207	3756.312
NC(=O)OC1=NNC=N1	NC(=O)Oc1n[nH]cn1	
InChI=1S/C3H4N4O2/c4-2(8)9-3-5-1-6-7-3/h1H,(H2,4,8)(H,5,6,7)	InChI=1S/C3H4N4O2/c4-2(8)9-3-5-1-6-7-3/h1H,(H2,4,8)(H,5,6,7)
