20
gdb 29690	2.38474	1.52575	0.94706	1.7669	84.87	-0.1693	0.05	0.2192	1258.2289	0.169203	-403.191645	-403.181212	-403.180268	-403.227218	37.002	
C	 0.0305720831	 1.4291486182	 0.0148115626	-0.341904
N	-0.0009103384	-0.0160635044	 0.0005880023	-0.103607
C	 0.0018476091	-0.8157809376	-1.1191269804	 0.30796
C	-0.0333093918	-0.2762981348	-2.511693046	-0.503437
C	 0.0408419139	-2.1295333967	-0.6959391496	-0.388973
C	 0.0691511489	-2.1130675236	 0.7232517407	 0.257345
O	 0.103151856	-3.1810479522	 1.5819135254	-0.458394
C	 0.047846933	-0.8046430126	 1.1467473803	 0.202697
C	 0.0651621881	-0.2512345815	 2.5303561457	-0.51382
H	 1.0227262153	 1.8146100997	 0.2823941229	 0.130899
H	-0.2300212957	 1.8120691611	-0.9723707214	 0.138855
H	-0.6933561414	 1.8234886439	 0.7343595762	 0.137008
H	 0.8347727599	 0.3526928043	-2.7475090842	 0.123746
H	-0.03319162	-1.1091753397	-3.2187637454	 0.131521
H	-0.9314278655	 0.3217840998	-2.7139576549	 0.124601
H	 0.0388062896	-2.9979947916	-1.3389537148	 0.080562
H	 0.1424767404	-3.9856982233	 1.0584610316	 0.292451
H	 0.9231913633	 0.4087437052	 2.7153456393	 0.117021
H	-0.8404267554	 0.3208422221	 2.7743108721	 0.118238
H	 0.1286733176	-1.0809627663	 3.2380690775	 0.147232
44.8488	117.1169	132.3352	162.1455	180.0032	187.848	243.5916	255.3948	288.0172	305.5651	344.564	537.7896	583.667	595.1782	622.874	670.6567	721.3537	732.584	842.2632	983.9501	1017.3144	1054.6914	1065.2386	1098.976	1147.0719	1149.173	1199.4921	1205.3962	1295.3448	1372.7126	1414.3043	1419.3444	1442.8851	1468.8495	1473.6558	1479.0778	1483.878	1494.5091	1495.5325	1514.227	1523.9386	1557.5477	1675.7818	3001.9269	3009.7431	3019.9765	3039.8478	3050.8718	3082.4369	3118.0172	3123.7113	3144.2149	3228.6964	3851.5875
CN1C(C)=CC(O)=C1C	Cn1c(C)cc(O)c1C	
InChI=1S/C7H11NO/c1-5-4-7(9)6(2)8(5)3/h4,9H,1-3H3	InChI=1S/C7H11NO/c1-5-4-7(9)6(2)8(5)3/h4,9H,1-3H3
