20
gdb 9284	3.38817	0.99711	0.80798	2.9513	72.8	-0.255	-0.0266	0.2284	1425.9788	0.172982	-386.148049	-386.13788	-386.136936	-386.184325	34.704	
C	 0.1678968846	 1.4825158896	 0.0641590129	-0.386171
C	 0.0164980526	-0.0398146344	 0.0307051072	-0.175465
C	-1.4381830894	-0.5087870852	-0.0213185906	 0.159052
C	-1.5519309211	-2.028847941	-0.1545795922	-0.406026
O	-2.06405701	-0.0391667232	 1.1735656163	-0.260378
C	-3.465887393	-0.0209258054	 1.1614168021	-0.1517
C	-3.9389110963	 0.7519413421	 2.381745531	 0.140794
O	-5.0926368933	 0.8495589214	 2.7043950027	-0.238533
H	 1.2213273458	 1.771453392	 0.1241249452	 0.112594
H	-0.2521679464	 1.9424009469	-0.837634503	 0.110101
H	-0.3518862381	 1.902450531	 0.9285995577	 0.129237
H	 0.538790006	-0.4524148856	-0.8405448234	 0.096382
H	 0.4855374006	-0.4838389198	 0.9175877232	 0.105498
H	-1.9365133967	-0.032706798	-0.8842207328	 0.064813
H	-1.0732008701	-2.5215769943	 0.6976750489	 0.125732
H	-2.5945742053	-2.3567359713	-0.1988363083	 0.117556
H	-1.060525243	-2.3682876299	-1.0716165929	 0.119041
H	-3.8620208162	 0.4819462805	 0.261435444	 0.118941
H	-3.9153594383	-1.0255786367	 1.1904387012	 0.123975
H	-3.1119859425	 1.2309816311	 2.9513057509	 0.094559
51.5741	55.1377	93.4912	114.31	149.5621	212.6574	227.8976	251.2728	322.9717	409.1504	431.2336	493.9661	569.4908	740.089	775.606	834.5155	912.3798	977.2658	1000.5329	1033.4108	1051.9393	1113.8661	1125.917	1143.2318	1169.4936	1199.9217	1239.3777	1299.8774	1330.7532	1343.3755	1387.0413	1395.4632	1406.6475	1407.9568	1416.4606	1475.1484	1481.8061	1492.3446	1497.2001	1502.4275	1510.8873	1844.3472	2896.9766	2948.5185	2958.1845	3004.0211	3029.9969	3037.2909	3040.7027	3067.9415	3102.0097	3111.556	3114.6748	3126.6447
CCC(C)OCC=O	CC[C@@H](C)OCC=O	
InChI=1S/C6H12O2/c1-3-6(2)8-5-4-7/h4,6H,3,5H2,1-2H3	InChI=1S/C6H12O2/c1-3-6(2)8-5-4-7/h4,6H,3,5H2,1-2H3/t6-/m1/s1
