16
gdb 19271	3.39472	1.89854	1.39491	3.296	66.24	-0.2369	-0.001	0.2359	903.8174	0.1303	-379.857087	-379.849482	-379.848538	-379.889421	27.586	
C	-0.1290295013	 1.3481567231	 0.0252561681	-0.244345
O	 0.2932225127	 0.005845456	 0.1638455872	-0.239531
C	 0.7640581088	-0.5727672672	-1.0211549723	 0.028806
C	 1.2963285901	-1.9889600992	-0.87906929	-0.067756
C	 0.2128871155	-2.9379436296	-0.5854782805	-0.234522
N	 0.3791932042	-2.5008770047	-2.001472533	-0.141167
C	-0.2226164727	-1.1826328442	-2.050124314	 0.333302
N	-1.1650133961	-0.8336354464	-2.8040322924	-0.507301
H	 0.6634983378	 1.9778384663	-0.4071036492	 0.111678
H	-1.0276310349	 1.4376496028	-0.6009346805	 0.113884
H	-0.3660863836	 1.7134807962	 1.0267776417	 0.137411
H	 1.4811706598	 0.0916205603	-1.5292198897	 0.093643
H	 2.3441079898	-2.2616041786	-0.8615291695	 0.111634
H	 0.4812895902	-3.9791878648	-0.4426253748	 0.136507
H	-0.6641885052	-2.6068481257	-0.0378050128	 0.141554
H	-1.3820527951	 0.1566663957	-2.6854037982	 0.226203
64.9507	125.9344	175.7884	230.7098	255.9934	358.4162	478.3906	512.5311	664.2428	681.5709	756.4859	831.1169	848.8545	904.1121	967.7865	978.3574	1018.1215	1045.9561	1057.6142	1113.8214	1137.3143	1157.6456	1176.6372	1205.1822	1231.1913	1254.1103	1289.5065	1361.5052	1382.0193	1478.396	1490.9685	1503.4989	1506.6423	1796.3641	2980.573	2986.8001	3038.3237	3122.9388	3128.3734	3196.9237	3221.3146	3477.9882
COC1C2CN2C1=N	CO[C@H]1[C@H]2CN2[C]1[NH]	
InChI=1S/C5H8N2O/c1-8-4-3-2-7(3)5(4)6/h3-4,6H,2H2,1H3	InChI=1S/C5H8N2O/c1-8-4-3-2-7(3)5(4)6/h3-4,6H,2H2,1H3/t3-,4+,7?/m1/s1
