21
gdb 40809	3.92367	1.03018	0.86384	1.2517	85.09	-0.2426	0.022	0.2645	1374.5229	0.184113	-387.07939	-387.071097	-387.070153	-387.112598	32.238	
C	-0.2240830863	 1.4166636661	-0.1426522572	-0.277334
C	 1.2264705029	 1.0729958017	 0.0933735952	-0.275854
C	 0.1913626638	-0.0223311352	 0.0386178751	 0.029938
C	-0.1936097377	-0.7824816082	 1.2948678988	-0.061225
C	-1.6202510971	-1.3422879865	 1.1932034014	-0.093301
O	-1.9203826912	-2.2067494599	 2.2748638002	-0.250708
C	-1.1292503703	-3.3785501369	 2.271970863	-0.114547
C	 0.3240785711	-3.112274368	 1.9923579982	-0.091612
C	 0.7555853338	-1.9243734717	 1.5759099132	-0.056476
H	-0.7674614961	 1.8917534604	 0.6680219133	 0.112259
H	-0.5218399048	 1.7500390755	-1.1304384487	 0.111699
H	 1.9205066136	 1.1706179478	-0.7339537273	 0.111353
H	 1.6523310576	 1.3193057129	 1.0607691613	 0.112257
H	 0.197829293	-0.6327370079	-0.8617512366	 0.082948
H	-0.1617997019	-0.0746957624	 2.137506953	 0.08142
H	-2.3619488003	-0.5395748599	 1.2253927515	 0.107047
H	-1.7362277129	-1.8725737952	 0.2322720282	 0.08331
H	-1.2515321069	-3.8305327095	 3.2639261963	 0.115433
H	-1.5226526255	-4.110862513	 1.5413558551	 0.094585
H	 1.010073845	-3.9405950703	 2.150942715	 0.090202
H	 1.8137976003	-1.7460718097	 1.4009681909	 0.088605
79.0201	94.8259	163.033	246.6434	300.2858	316.9984	408.5677	455.6006	497.3305	552.3191	687.3718	764.4066	793.4856	829.0927	877.7028	898.398	913.5632	927.2286	978.8272	990.3951	1000.8866	1029.3938	1056.7014	1076.8931	1079.8331	1099.9527	1140.0616	1147.2442	1175.2001	1198.8731	1216.4474	1224.4398	1245.0202	1277.689	1303.8501	1335.0947	1370.5462	1405.2053	1409.5909	1425.696	1470.0967	1486.1156	1497.9593	1505.8558	1721.6588	2925.1102	2959.0454	2985.6478	3045.0056	3088.6349	3128.4334	3128.9064	3134.1751	3146.9717	3170.4195	3206.7092	3221.6354
C1CC1C1COCC=C1	C1CC1[C@H]1COCC=C1	
InChI=1S/C8H12O/c1-2-8(6-9-5-1)7-3-4-7/h1-2,7-8H,3-6H2	InChI=1S/C8H12O/c1-2-8(6-9-5-1)7-3-4-7/h1-2,7-8H,3-6H2/t8-/m1/s1
