20
gdb 59509	3.47544	0.91313	0.78733	4.3812	77.27	-0.2419	0.0343	0.2762	1474.6847	0.169872	-440.296593	-440.286783	-440.285839	-440.331966	35.821	
C	 0.0221338748	 1.5149019993	-0.2064543167	-0.401135
C	-0.0067395543	 0.0165426616	 0.0861467183	 0.105714
O	 0.7333992616	-0.2930904974	 1.2789910891	-0.431676
C	-1.4224371948	-0.5293730531	 0.1533279738	-0.072484
C	-1.9822402453	-1.3424897864	-0.9931364446	-0.290955
C	-1.639456179	-2.0129343349	 0.3116570536	 0.041915
N	-0.4731645632	-2.8376967094	 0.4128468899	-0.286264
C	-0.4651326239	-4.1438565282	 0.03487412	 0.146725
O	-1.3921191214	-4.7245101969	-0.4877645737	-0.322942
H	 1.0529570238	 1.8754760161	-0.2500263876	 0.127215
H	-0.4694893125	 1.7336291695	-1.1594481086	 0.127555
H	-0.5048399205	 2.0736563289	 0.5767773221	 0.109046
H	 0.5412138859	-0.513627038	-0.6993432699	 0.097129
H	 0.2809417205	 0.121034513	 2.0225548888	 0.280991
H	-2.1228368436	 0.1088044251	 0.6884035787	 0.084618
H	-3.0296558534	-1.237328281	-1.2503785651	 0.121047
H	-1.3248534181	-1.53635065	-1.8334220432	 0.125561
H	-2.4778452372	-2.3348593348	 0.9241595088	 0.107345
H	 0.3079421987	-2.4567403255	 0.929877289	 0.261043
H	 0.5079954518	-4.6276209679	 0.2573453472	 0.069554
35.8319	98.0886	122.0927	174.5368	230.3091	250.7092	268.7353	314.8079	332.9142	393.664	441.1415	509.1499	597.6864	662.8271	751.5987	790.2385	841.5589	877.0667	919.9914	985.6277	1010.2618	1014.0547	1035.9861	1061.3579	1080.5717	1101.8064	1125.1057	1140.5514	1188.9414	1211.4453	1273.0659	1284.1128	1323.3516	1389.7344	1404.146	1421.4892	1427.8304	1430.1762	1484.0213	1490.5508	1493.914	1512.05	1808.1388	2924.6103	3028.2164	3061.9017	3099.7107	3123.3438	3125.0919	3135.3258	3142.137	3230.7321	3582.9084	3800.0182
CC(O)C1CC1NC=O	C[C@@H](O)[C@H]1C[C@H]1NC=O	
InChI=1S/C6H11NO2/c1-4(9)5-2-6(5)7-3-8/h3-6,9H,2H2,1H3,(H,7,8)	InChI=1S/C6H11NO2/c1-4(9)5-2-6(5)7-3-8/h3-6,9H,2H2,1H3,(H,7,8)/t4-,5-,6-/m1/s1
