20
gdb 69380	3.42667	1.14582	1.08202	1.3755	79.52	-0.2246	0.0809	0.3054	1205.6228	0.170769	-403.075066	-403.066723	-403.065779	-403.10789	32.936	
O	-1.0651964387	 1.0772820776	-0.1288546173	-0.465475
C	-0.2910697297	-0.0542627365	 0.0624084425	 0.407079
C	 0.0256405464	-1.015668919	-1.0458379308	-0.352469
C	-0.7749797407	-1.4902507287	 0.1522695532	-0.138139
C	 0.2079408673	-1.759992036	 1.3183133755	 0.05558
C	 0.6557796318	-0.2628184202	 1.2505940615	-0.312387
N	-0.2879896059	-2.1390744472	 2.6305417351	-0.084403
C	-1.6419787097	-1.7591299921	 3.0210909384	-0.228127
C	-1.3062463475	-3.1781629491	 2.7118861258	-0.224062
H	-0.5704639321	 1.6941424748	-0.6794342569	 0.284685
H	-0.5625994833	-0.8724913461	-1.9470238538	 0.111773
H	 1.0389465052	-1.3776467166	-1.2133202925	 0.102495
H	-1.7722384798	-1.8935857412	 0.0256690706	 0.094072
H	 0.9926523737	-2.4791968446	 1.0573715746	 0.077183
H	 1.7193154224	-0.0551835106	 1.0930976115	 0.088635
H	 0.3085079927	 0.2691012127	 2.1389139865	 0.118653
H	-1.7546482633	-1.4339368392	 4.0515791197	 0.114117
H	-2.2631219495	-1.225364495	 2.3062285389	 0.12514
H	-1.701800883	-3.5901509851	 1.7852250766	 0.110576
H	-1.1759022763	-3.9039015278	 3.5100893408	 0.115073
83.831	130.0063	199.6705	247.0163	287.4576	359.621	387.438	417.922	459.9066	484.018	633.7047	728.8592	759.2201	815.5905	851.2946	881.1296	900.8181	911.06	944.8978	992.0705	1008.4359	1023.0933	1027.1634	1060.3734	1072.9436	1099.6632	1113.1231	1121.3353	1146.039	1176.0067	1187.1064	1217.5752	1232.7258	1247.92	1287.3629	1304.9146	1335.3297	1373.1993	1400.2961	1474.389	1495.935	1501.5401	1522.8277	3035.6919	3048.3415	3093.219	3097.692	3109.6822	3119.8662	3177.5834	3184.49	3195.5395	3197.9341	3793.9008
OC12CC1C(C2)N1CC1	O[C@]12C[C@H]1[C@@H](C2)N1CC1	
InChI=1S/C7H11NO/c9-7-3-5(7)6(4-7)8-1-2-8/h5-6,9H,1-4H2	InChI=1S/C7H11NO/c9-7-3-5(7)6(4-7)8-1-2-8/h5-6,9H,1-4H2/t5-,6+,7-/m0/s1
