17
gdb 62247	5.35792	0.57111	0.53018	3.8855	72.74	-0.2726	0.0001	0.2727	1960.0381	0.133984	-455.141447	-455.131259	-455.130315	-455.178843	34.026	
O	-0.09063673	 1.4296280417	-0.0274150047	-0.408772
C	 0.0038548106	 0.015364373	-0.0132747303	-0.026787
C	 0.6276544334	-0.5598737138	-1.2951229436	-0.217778
C	-0.1674617006	-0.1523853836	-2.5290051217	-0.08289
O	 0.4860425876	-0.7216706774	-3.6596988606	-0.184617
C	 0.0955147143	-0.2698837616	-4.8694774499	 0.126836
N	 0.5689913985	-0.7886301403	-5.9165050018	-0.432879
C	 0.7388932667	-0.4570378531	 1.177457418	 0.26031
N	 1.3405722913	-0.8036930708	 2.1008153121	-0.306802
H	 0.8016599993	 1.794278355	 0.0110136728	 0.299226
H	-1.0310666872	-0.3359752114	 0.0762778292	 0.145367
H	 1.6612402048	-0.2089855412	-1.3921753613	 0.12837
H	 0.6663328081	-1.6515676306	-1.2243925904	 0.142894
H	-1.1988288906	-0.5275428811	-2.4621211456	 0.113483
H	-0.209349678	 0.9398596223	-2.6117365976	 0.124138
H	-0.62879689	 0.5551810901	-4.816331055	 0.087566
H	 0.187393332	-0.325534267	-6.7385694597	 0.232335
26.1654	57.0116	82.1376	107.4358	134.1049	185.7397	236.2228	284.2539	340.501	384.8876	438.2295	586.3586	592.3984	635.9429	800.3409	822.9717	883.7917	971.3652	1004.7346	1043.9549	1073.4727	1100.9723	1114.1651	1145.2332	1213.7007	1272.9698	1285.4995	1305.1264	1328.7739	1361.6793	1409.4895	1421.0011	1437.4921	1484.8765	1521.5389	1751.6814	2358.2359	3000.2195	3021.1667	3046.7679	3056.81	3061.6918	3103.2878	3520.9176	3796.7219
OC(CCOC=N)C#N	O[C@@H](CCO[CH][NH])C#N	
InChI=1S/C5H8N2O2/c6-3-5(8)1-2-9-4-7/h4-5,7-8H,1-2H2	InChI=1S/C5H8N2O2/c6-3-5(8)1-2-9-4-7/h4-5,7-8H,1-2H2/t5-/m0/s1
