14
gdb 22581	4.39957	1.07484	0.91032	4.8482	61.86	-0.2772	-0.026	0.2512	1190.7688	0.100687	-510.951351	-510.943527	-510.942583	-510.984351	28.294	
O	-0.048806952	 1.3623906431	 0.0150762734	-0.389921
N	 0.0978595331	-0.0287250604	-0.0153663322	-0.18031
C	-1.0341488278	-0.6041353433	 0.0626332573	 0.340924
C	-2.3621757065	 0.0786769533	 0.216601092	-0.158877
O	-3.4392430499	-0.8676663988	 0.2584657041	-0.252303
C	-3.3073169292	-2.008152435	 0.9846937532	 0.465768
O	-4.2365182648	-2.5362818162	 1.50988985	-0.347347
O	-2.0564454268	-2.5225642454	 1.0474673634	-0.240552
C	-1.1183728664	-2.0962186641	 0.0441702363	-0.169359
H	 0.8619794878	 1.6734262496	-0.0312207495	 0.318307
H	-2.3733253741	 0.6960144228	 1.1231961231	 0.156348
H	-2.5702420205	 0.7377143569	-0.630487673	 0.161129
H	-1.4532771924	-2.4615099563	-0.9353836731	 0.140264
H	-0.1627916705	-2.558206106	 0.2893795449	 0.155929
56.6227	149.3733	178.8088	210.5001	316.7433	377.4192	419.6665	445.5246	516.206	586.6876	619.5395	746.0882	794.8771	824.1945	851.2346	971.3692	999.1636	1044.2205	1054.1722	1143.0059	1150.8912	1239.014	1262.68	1291.3413	1369.7614	1395.2698	1423.0648	1480.7209	1491.8196	1759.257	1897.3879	3026.8062	3039.4171	3099.5524	3146.8457	3817.0749
ON=C1COC(=O)OC1	ON=C1COC(=O)OC1	
InChI=1S/C4H5NO4/c6-4-8-1-3(5-7)2-9-4/h7H,1-2H2	InChI=1S/C4H5NO4/c6-4-8-1-3(5-7)2-9-4/h7H,1-2H2
