17
gdb 99571	2.29221	1.16359	0.89731	0.7024	76.33	-0.2585	0.0176	0.2761	1308.9378	0.131662	-421.7395	-421.729113	-421.728168	-421.774957	37.367	
O	 0.0517065672	 1.4968725166	-0.0267425401	-0.420599
C	 0.0633315392	 0.0881346542	 0.0285945967	-0.069529
C	-1.3630219557	-0.5093672821	 0.0027870229	-0.193993
C	-2.0590528509	-0.0780548553	-1.2059199072	 0.308112
C	-2.5967061781	 0.3145109782	-2.2076536113	-0.457172
C	-1.3618119328	-2.0661309117	 0.1193094414	-0.066421
O	-0.6723007654	-2.6857899402	-0.9580150699	-0.413548
C	-0.8437228466	-2.4959695353	 1.4204536284	 0.295759
C	-0.3829193235	-2.8441596303	 2.4748977821	-0.44297
H	-0.420619572	 1.745345478	-0.8307364358	 0.286388
H	 0.6443485335	-0.3452955033	-0.798981738	 0.092762
H	 0.547025345	-0.1835748638	 0.97092618	 0.12201
H	-1.8989461954	-0.1191551005	 0.8774315698	 0.124841
H	-3.0914815289	 0.6413329239	-3.0889221142	 0.202053
H	-2.4018172983	-2.3980380893	 0.0241754683	 0.132463
H	 0.2617120556	-2.7309369963	-0.7285537767	 0.293101
H	 0.0093379072	-3.1623097027	 3.4096729135	 0.206744
60.4863	99.1339	121.301	157.9825	180.5981	212.7953	240.1479	276.1849	337.5429	391.7887	414.5361	486.996	551.2643	577.8521	627.0215	640.0644	663.7467	680.5141	698.8194	821.2679	889.9976	974.8583	1055.7659	1073.4491	1080.9917	1094.805	1212.0549	1238.7655	1278.8502	1313.26	1359.5184	1384.3975	1419.2262	1425.9442	1514.1813	2229.193	2232.9512	2992.4112	3035.4392	3049.2582	3095.7086	3500.598	3501.3508	3780.0059	3819.8378
OCC(C#C)C(O)C#C	OC[C@@H](C#C)[C@@H](O)C#C	
InChI=1S/C7H8O2/c1-3-6(5-8)7(9)4-2/h1-2,6-9H,5H2	InChI=1S/C7H8O2/c1-3-6(5-8)7(9)4-2/h1-2,6-9H,5H2/t6-,7+/m1/s1
