23
gdb 106778	1.89578	1.6824	1.1386	1.0282	86.94	-0.2129	0.083	0.2959	1228.3036	0.203726	-388.259536	-388.249469	-388.248525	-388.29441	37.754	
C	-1.1411530381	-1.0991506135	-0.3840390974	-0.255526
O	 0.110845152	-0.5084631087	-0.1153325922	-0.282645
C	 0.7399341592	-0.8451448539	 1.0692123709	 0.411342
C	 0.1039949978	-1.4193737458	 2.3008321884	-0.40942
C	 1.2882093792	-2.1515775057	 1.6798486356	 0.27643
C	 1.2363149982	-3.5994807453	 1.2824947465	-0.50175
C	 2.5660265945	-1.4089176348	 2.0883284728	-0.293983
C	 2.0223982549	-0.0932145769	 1.4335427912	-0.038746
C	 2.8360209451	 0.3919975652	 0.2395105151	-0.400418
H	-1.8925256382	-0.830207883	 0.3708556156	 0.114821
H	-1.4633209192	-0.7163982184	-1.3552946792	 0.127778
H	-1.080469832	-2.1952034701	-0.4436674675	 0.112391
H	 0.1869118652	-0.9206659224	 3.2672396345	 0.096062
H	-0.8463186218	-1.9228437872	 2.1511545794	 0.105662
H	 0.2466766159	-3.886029578	 0.9123878539	 0.114567
H	 1.9649032645	-3.8231054287	 0.4946028775	 0.117317
H	 1.4659536754	-4.2501594877	 2.1364063958	 0.118254
H	 2.7712371854	-1.370502122	 3.1644053535	 0.087144
H	 3.4589509157	-1.7774398489	 1.5741286536	 0.095379
H	 1.861342455	 0.7352972602	 2.1349083438	 0.061671
H	 3.0095474016	-0.4190434499	-0.4757261927	 0.11429
H	 2.3171247458	 1.1948664788	-0.2919593911	 0.122676
H	 3.810000574	 0.7699843568	 0.568394862	 0.106706
47.5289	117.6751	156.8334	194.9386	202.6626	219.255	229.8534	315.1068	332.1489	399.56	431.9402	475.898	518.152	601.4527	671.1574	746.5825	814.7376	855.0112	891.8021	925.306	967.719	976.8255	1042.1934	1046.4496	1058.9579	1073.3323	1114.539	1127.5883	1176.2585	1183.6941	1197.4283	1232.1231	1234.8951	1266.1758	1268.1218	1323.7263	1365.9955	1382.712	1408.2604	1417.8684	1479.3967	1483.3269	1485.1326	1489.4653	1490.186	1497.9171	1498.9427	1507.0474	1514.6316	2991.3839	3014.2764	3016.6645	3030.1167	3033.1753	3045.3155	3070.2463	3075.7742	3084.1554	3094.9865	3099.3423	3110.3136	3116.4295	3184.7741
COC12CC1(C)CC2C	CO[C@@]12C[C@]1(C)C[C@H]2C	
InChI=1S/C8H14O/c1-6-4-7(2)5-8(6,7)9-3/h6H,4-5H2,1-3H3	InChI=1S/C8H14O/c1-6-4-7(2)5-8(6,7)9-3/h6H,4-5H2,1-3H3/t6-,7+,8-/m1/s1
