18
gdb 35574	2.79613	1.52372	1.26967	4.865	74.77	-0.2618	0.029	0.2908	1037.1579	0.150214	-401.961249	-401.953709	-401.952764	-401.993723	28.918	
N	 0.3235324686	-1.1362480524	 0.3393372659	-0.337922
C	 0.1950151992	 0.0005457436	 0.1695664563	 0.299489
C	 0.0371082514	 1.4308044549	-0.0093699854	-0.196114
C	-0.408249735	 2.2641252949	 1.2383624326	-0.258808
C	 0.8389792817	 3.181730929	 1.0863402477	-0.038174
C	 1.9296515071	 3.0359767036	 2.1539846968	-0.233787
C	 2.6126585779	 1.7171179562	 1.7588662987	-0.098912
O	 2.5450151993	 1.6715356659	 0.3297020429	-0.240136
C	 1.3611687815	 2.2939581093	-0.0875100931	 0.108074
H	-0.6005644825	 1.6128949245	-0.8784882904	 0.122446
H	-1.3728228519	 2.7589769396	 1.1164997185	 0.118832
H	-0.4296059699	 1.687101713	 2.1653592618	 0.121811
H	 0.6105945899	 4.2197999302	 0.8439295409	 0.081121
H	 2.639973951	 3.8650710447	 2.0813780447	 0.113244
H	 1.5314036973	 3.0148925495	 3.1721729957	 0.110051
H	 3.6669590232	 1.6624347598	 2.0389768891	 0.11937
H	 2.0960023758	 0.849377937	 2.1921583592	 0.115845
H	 1.5365131454	 2.7412078365	-1.067711992	 0.093567
60.4236	132.3713	221.3839	226.4893	349.507	380.8818	513.2051	566.6484	643.2451	651.3947	750.1625	771.96	839.7342	863.2556	902.5163	923.4151	958.9013	976.2895	982.6392	1024.6128	1079.2331	1087.8132	1128.2135	1144.5386	1175.1005	1215.4178	1234.0883	1247.3674	1269.0284	1276.526	1310.8484	1323.7226	1341.714	1356.4764	1395.4268	1481.5912	1486.9327	1527.2778	2351.8793	3012.6259	3055.705	3074.562	3074.9716	3092.5532	3101.73	3106.2824	3112.2813	3133.4589
N#CC1CC2CCOC12	N#C[C@H]1C[C@H]2CCO[C@@H]12	
InChI=1S/C7H9NO/c8-4-6-3-5-1-2-9-7(5)6/h5-7H,1-3H2	InChI=1S/C7H9NO/c8-4-6-3-5-1-2-9-7(5)6/h5-7H,1-3H2/t5-,6-,7-/m1/s1
