19
gdb 103495	2.66351	1.40694	1.19741	1.1756	70.76	-0.2392	0.0639	0.3031	1117.5099	0.158047	-460.132091	-460.123266	-460.122322	-460.165949	33.057	
C	 0.1174264642	 1.4229914434	-0.3442507771	-0.395692
C	 0.014957094	 0.0125440208	 0.2485190021	-0.23113
C	-1.3697379138	-0.5778485384	 0.1189883522	 0.314075
O	-2.3725527808	 0.0166522646	 0.9026256354	-0.468366
C	-1.8901630445	-1.1628351871	-1.1904852712	-0.034736
O	-0.9258962437	-1.4931456809	-2.1663911865	-0.252441
C	-0.4690194438	-2.7868721362	-1.8092241952	 0.020677
O	-0.5129392188	-2.8591800359	-0.3940910142	-0.253712
C	-1.6154566279	-2.0648313645	-0.0184009758	 0.000288
H	 1.1211990525	 1.8344495903	-0.2041713259	 0.117696
H	-0.0967093769	 1.4103179625	-1.4176002253	 0.130183
H	-0.5836131648	 2.1154043904	 0.1366335519	 0.103097
H	 0.7346442282	-0.6498268558	-0.2364885965	 0.118516
H	 0.2676323082	 0.0313774643	 1.3152769798	 0.106536
H	-2.5673211346	 0.8836305506	 0.5289853497	 0.287471
H	-2.8835293758	-0.9240178559	-1.5571438628	 0.104104
H	-1.1193034696	-3.5594787184	-2.2531636061	 0.095197
H	 0.5641199675	-2.9095528423	-2.1439375602	 0.123513
H	-2.3807905095	-2.5505367514	 0.5771596159	 0.114724
41.229	145.8896	169.5683	224.2548	263.8268	277.0409	290.2692	352.9053	395.4989	503.2922	563.2225	699.6193	740.5237	755.1758	782.3472	865.4722	891.9959	952.3355	979.8095	1018.2686	1033.753	1063.9871	1069.2789	1086.5701	1101.069	1128.2413	1183.6224	1193.5383	1224.573	1264.5547	1279.8907	1296.2447	1308.4181	1371.7643	1404.5033	1418.2964	1433.2276	1475.0794	1501.7954	1505.7627	1535.9144	2962.1163	3029.3121	3044.0485	3088.3053	3102.0645	3111.6634	3119.7352	3156.0282	3172.2701	3796.3439
CCC1(O)C2OCOC12	CC[C@@]1(O)[C@H]2OCO[C@@H]12	
InChI=1S/C6H10O3/c1-2-6(7)4-5(6)9-3-8-4/h4-5,7H,2-3H2,1H3	InChI=1S/C6H10O3/c1-2-6(7)4-5(6)9-3-8-4/h4-5,7H,2-3H2,1H3/t4-,5+,6+
