17
gdb 123755	4.71106	1.09209	0.98049	3.321	74.62	-0.2334	0.0174	0.2508	1205.9274	0.139111	-418.007134	-417.999638	-417.998694	-418.040208	27.68	
C	 0.0193673805	 1.2803169181	-0.3039741131	-0.066343
C	 1.4725665378	 1.5111572556	 0.146489418	-0.283483
C	 1.3537939022	 0.0876296264	 0.7621601441	 0.022064
O	 0.0592279888	-0.1000829111	 0.1324894155	-0.301003
C	 2.3187264469	-0.9664469375	 0.347082736	 0.378494
C	 3.54130005	-1.3851811578	 0.8394605428	-0.332454
C	 3.9515308746	-2.4014164165	-0.0496081516	 0.000712
N	 3.0577987631	-2.6126201432	-1.0132411344	-0.231795
N	 2.085856878	-1.7189715625	-0.7562316142	-0.232102
H	-0.7323023199	 1.8535778144	 0.2521789381	 0.109592
H	-0.1905088094	 1.3624395829	-1.3754682837	 0.112379
H	 2.1938905215	 1.5690945806	-0.6693315228	 0.124287
H	 1.6478740949	 2.3249672153	 0.8506241582	 0.116856
H	 1.2629650348	 0.1066796501	 1.8561441131	 0.095052
H	 4.0576887818	-1.0095685309	 1.7081685616	 0.100416
H	 4.8569399863	-2.9900239134	-0.0220187446	 0.110567
H	 1.2358262583	-1.7110876405	-1.2956801731	 0.27676
49.2453	94.7085	145.5327	209.8183	370.1945	423.4237	588.0194	648.552	691.8788	715.7303	782.3051	802.7731	849.1955	892.7527	922.6136	938.8728	953.7841	1009.2468	1022.8735	1057.9414	1068.4459	1091.1816	1134.0869	1169.3811	1213.4224	1246.364	1255.4648	1260.6443	1299.1605	1326.8287	1352.8584	1379.6617	1447.1839	1489.3539	1497.7892	1531.5952	1597.7941	3014.6977	3026.529	3072.792	3088.902	3148.1786	3243.1201	3266.6651	3670.911
C1CC(O1)C1=CC=NN1	C1C[C@@H](O1)c1ccn[nH]1	
InChI=1S/C6H8N2O/c1-3-7-8-5(1)6-2-4-9-6/h1,3,6H,2,4H2,(H,7,8)	InChI=1S/C6H8N2O/c1-3-7-8-5(1)6-2-4-9-6/h1,3,6H,2,4H2,(H,7,8)/t6-/m1/s1
