19
gdb 31021	2.30225	1.33308	0.8946	2.0793	79.54	-0.1905	0.0537	0.2441	1325.7395	0.159438	-419.269632	-419.260153	-419.259209	-419.304114	34.8	
C	 0.0496905017	 1.5693516106	-0.351796763	-0.362878
C	-0.0141298521	 0.0994995936	 0.0945095938	-0.289534
C	-1.4124599596	-0.4297187712	 0.1621057462	 0.208835
C	-2.1250098958	-0.8621798027	 1.2482995645	 0.212485
C	-1.8115011462	-0.9828152356	 2.6999834913	-0.510027
N	-3.3740262956	-1.230333603	 0.7339461422	-0.356018
C	-3.3279241905	-0.9982540713	-0.6000157573	 0.428511
O	-4.4038583573	-1.2668467431	-1.3621107848	-0.428099
N	-2.1842784004	-0.5208155971	-0.9978451411	-0.417621
H	 1.0866101146	 1.9089616388	-0.4417146001	 0.102401
H	-0.4394907679	 1.6921728951	-1.3218104731	 0.133801
H	-0.4616212772	 2.219238574	 0.3658976373	 0.108995
H	 0.5641327252	-0.5108437396	-0.6111194042	 0.108206
H	 0.4697556249	-0.0141195847	 1.0708764548	 0.091841
H	-2.4745364685	-0.3667327111	 3.3213230408	 0.125473
H	-1.8963935129	-2.016752096	 3.0592661661	 0.125024
H	-0.7876973506	-0.6541356313	 2.8907356069	 0.141253
H	-4.1579951785	-1.6009148051	 1.243093578	 0.265212
H	-4.1547195133	-1.0320728203	-2.2648240882	 0.312138
52.3641	132.0988	145.5416	195.4204	206.3384	268.1833	288.4171	324.6532	389.795	415.5324	464.8589	512.7493	610.695	627.0513	698.1043	730.6558	780.092	812.2643	976.4154	986.6539	1035.1618	1063.173	1082.2237	1085.2679	1170.5074	1183.6188	1247.1762	1274.7349	1314.7359	1354.93	1400.7119	1413.1439	1424.0967	1476.2402	1478.6666	1494.4608	1496.7983	1509.0666	1567.5512	1628.3612	1656.4825	3010.4963	3022.536	3035.3095	3051.1423	3064.5689	3102.5545	3120.9744	3125.0996	3672.1766	3805.2016
CCC1=C(C)NC(O)=N1	CCc1c(C)[nH]c(O)n1	
InChI=1S/C6H10N2O/c1-3-5-4(2)7-6(9)8-5/h3H2,1-2H3,(H2,7,8,9)	InChI=1S/C6H10N2O/c1-3-5-4(2)7-6(9)8-5/h3H2,1-2H3,(H2,7,8,9)
