16
gdb 60779	2.11614	1.31758	0.85768	4.9418	75.75	-0.267	-0.0445	0.2225	1293.335	0.120341	-400.729476	-400.719526	-400.718582	-400.765182	34.442	
C	-0.0185844582	 1.4806058948	-0.0924427749	-0.422919
C	-0.019190759	-0.0552948496	-0.0052864662	-0.063923
C	 0.6866212286	-0.6037901403	-1.2392270875	 0.163219
O	 0.120689045	-0.9081208583	-2.2531912414	-0.237345
C	 0.6922157773	-0.5471713067	 1.294432654	-0.346679
C	 0.0474986815	-0.0477586147	 2.5082739492	 0.316064
C	-0.4943239637	 0.371075047	 3.4938508028	-0.402308
C	 0.7697032345	-2.0185167472	 1.3172738628	 0.293589
N	 0.8365425635	-3.1713796842	 1.3036368789	-0.311423
H	 1.0025421165	 1.8742396797	-0.1543981772	 0.126476
H	-0.5623695789	 1.801522489	-0.9839180652	 0.147772
H	-0.4983714357	 1.9133718251	 0.788356044	 0.149104
H	-1.0466342362	-0.4281950115	-0.0144145261	 0.130591
H	 1.7986397744	-0.6545167912	-1.1579112972	 0.083993
H	 1.7278069548	-0.1760627838	 1.2684021858	 0.159064
H	-0.9669395544	 0.7337698919	 4.3737734781	 0.214725
52.8093	58.5647	127.2471	136.402	171.3946	229.5097	289.5317	314.4616	343.2605	370.9733	444.2012	501.9978	579.9112	604.7096	653.2078	673.0559	862.4204	895.3526	935.2841	983.2535	1024.399	1098.0738	1109.962	1150.58	1233.1113	1298.5039	1320.4761	1340.99	1404.5467	1428.7995	1495.8653	1499.7855	1844.3732	2248.0983	2364.843	2850.0851	3002.7994	3038.9639	3088.9696	3115.3423	3137.2459	3500.1763
CC(C=O)C(C#C)C#N	C[C@@H](C=O)[C@@H](C#C)C#N	
InChI=1S/C7H7NO/c1-3-7(4-8)6(2)5-9/h1,5-7H,2H3	InChI=1S/C7H7NO/c1-3-7(4-8)6(2)5-9/h1,5-7H,2H3/t6-,7-/m0/s1
