22
gdb 15984	3.28768	1.49418	1.17636	0.1384	82.42	-0.2597	0.09	0.3496	1125.819	0.200251	-313.052685	-313.044058	-313.043113	-313.085816	33.003	
C	 0.0046704342	 1.5696259522	-0.1098133154	-0.381899
C	 0.0240888892	 0.0505050914	 0.0922100672	-0.196628
C	-1.3679848896	-0.567912129	 0.0744565657	-0.014852
C	-2.152102066	-0.6032805988	-1.2742311988	-0.224399
C	-2.6002858248	-2.0591669637	-0.9579475819	-0.300442
C	-1.5289171634	-2.1007336672	 0.1391873397	 0.363729
C	-0.4154925865	-3.1071878664	 0.2195368593	-0.317411
C	-1.4437199311	-3.0102009054	 1.3254913937	-0.329867
H	 1.0165712463	 1.9865000163	-0.1015672583	 0.109957
H	-0.4569371197	 1.8351027918	-1.0669825079	 0.118288
H	-0.5677558526	 2.0667797863	 0.681307501	 0.112785
H	 0.6351361308	-0.4179257447	-0.6902069878	 0.093404
H	 0.5163452465	-0.1830474715	 1.0463867186	 0.090902
H	-1.9835277881	-0.0972487725	 0.853038454	 0.063616
H	-2.9390201846	 0.1405494257	-1.4171836793	 0.093499
H	-1.4737911439	-0.5621244739	-2.1323154312	 0.097751
H	-3.6174357945	-2.1049672198	-0.5548050112	 0.097868
H	-2.5147544633	-2.7914969144	-1.7657802078	 0.094972
H	-0.4564758271	-3.9656624871	-0.4441859071	 0.106252
H	 0.5904782186	-2.7577454381	 0.4290100313	 0.109725
H	-1.1283647696	-2.5877336514	 2.2751752466	 0.105963
H	-2.1779406808	-3.8050444798	 1.4160227497	 0.106785
79.408	97.8847	154.1577	216.0725	250.5969	275.6649	337.8042	418.2781	467.9817	539.0136	718.811	756.9388	778.0914	800.4096	860.8618	891.7979	909.94	932.5892	943.3511	954.1902	988.32	1001.7593	1047.8897	1072.3805	1075.5581	1102.8982	1152.4457	1179.2574	1187.657	1199.3498	1236.6503	1253.1102	1274.985	1278.8502	1294.251	1341.6483	1370.566	1391.5588	1410.459	1462.3724	1477.6194	1487.6355	1497.1527	1499.6767	1504.1984	1507.9261	3007.2029	3009.6013	3030.4268	3041.3892	3045.9368	3051.4957	3087.9481	3097.1262	3102.1	3110.5811	3115.5288	3120.6234	3192.2476	3207.7934
CCC1CCC11CC1	CC[C@H]1CCC21CC2	
InChI=1S/C8H14/c1-2-7-3-4-8(7)5-6-8/h7H,2-6H2,1H3	InChI=1S/C8H14/c1-2-7-3-4-8(7)5-6-8/h7H,2-6H2,1H3/t7-/m0/s1
