18
gdb 32926	4.63771	0.83834	0.73049	2.2747	76.37	-0.1742	0.0601	0.2343	1545.5635	0.148477	-435.296097	-435.286785	-435.285841	-435.331031	33.656	
C	-0.046443723	 1.5247450136	 0.1151034528	-0.389971
C	-0.2071945795	 0.0765086935	-0.3340522076	-0.12679
N	-1.2915781993	-0.5730214474	 0.4133164707	-0.390965
C	-1.5873215924	-1.9003589932	 0.1149130201	 0.415527
N	-2.7633386543	-2.3766402522	-0.1966160097	-0.32602
C	-2.5979194869	-3.7565577019	-0.3010291827	-0.233942
C	-1.2962287114	-4.0805804301	-0.0650307573	 0.353154
O	-0.5651060932	-5.2242570224	-0.0486404311	-0.440659
N	-0.6404496565	-2.8954625674	 0.199673295	-0.343986
H	 0.7797918722	 2.004070495	-0.4174687761	 0.120493
H	-0.9545969172	 2.1020611969	-0.0917954319	 0.120857
H	 0.1500023876	 1.5774860429	 1.1897063873	 0.129734
H	-0.3739393757	 0.0326429083	-1.4227169892	 0.1017
H	 0.7224011041	-0.4703425978	-0.1369782747	 0.09948
H	-2.1545720821	-0.0450745608	 0.3452564438	 0.240747
H	-3.4183182793	-4.4096135537	-0.5542452591	 0.09392
H	-1.1477538799	-5.9563327268	-0.27247886	 0.308518
H	 0.3119927169	-2.8154159463	 0.5117198596	 0.268204
47.7507	66.5912	114.0429	216.0164	242.7046	256.0343	313.4673	360.5686	393.5753	430.8591	480.1771	648.2294	654.9126	702.0838	747.1712	755.6415	790.8462	820.8959	930.9542	1003.4554	1050.1987	1070.8108	1130.3228	1143.0578	1164.4931	1187.831	1265.1477	1285.607	1297.1827	1370.0565	1412.3933	1433.8391	1483.5171	1491.7401	1498.3244	1512.443	1524.4235	1625.5884	1645.9566	2970.4925	3036.9819	3046.6145	3105.5471	3122.8792	3249.5112	3552.9655	3674.3761	3845.5554
CCNC1=NC=C(O)N1	CCNc1ncc(O)[nH]1	
InChI=1S/C5H9N3O/c1-2-6-5-7-3-4(9)8-5/h3,9H,2H2,1H3,(H2,6,7,8)	InChI=1S/C5H9N3O/c1-2-6-5-7-3-4(9)8-5/h3,9H,2H2,1H3,(H2,6,7,8)
