16
gdb 32342	4.58738	1.00798	0.88483	6.0601	75.01	-0.2546	-0.0766	0.178	1301.0895	0.124431	-437.943385	-437.935245	-437.934301	-437.976988	29.533	
C	 0.0501565796	 1.5717164041	 0.1100050771	-0.371692
C	 0.0079850448	 0.0456366435	-0.0750641153	-0.300876
C	-1.3887513684	-0.5183302651	-0.0448068063	 0.157212
C	-2.0370533812	-0.9743153964	-1.1415628141	 0.034178
O	-3.2790368003	-1.4516741987	-1.1058964662	-0.202132
C	-4.0182181431	-1.496232574	 0.1180762107	 0.446865
O	-5.1367013879	-1.9041456592	 0.0470545146	-0.324678
N	-3.3652613455	-1.0723378206	 1.2587539603	-0.317809
C	-2.1521852496	-0.6184248203	 1.1639272722	-0.003128
H	 1.0822580783	 1.934134489	 0.1025703759	 0.124715
H	-0.4967885538	 2.0779763411	-0.6912037482	 0.126702
H	-0.402880611	 1.8702480347	 1.0609790277	 0.12669
H	 0.4819939079	-0.2223339695	-1.0258914497	 0.112763
H	 0.6076947111	-0.4321010994	 0.7097323978	 0.119277
H	-1.6131875572	-1.000499559	-2.1417592782	 0.144409
H	-1.6872955237	-0.3005655604	 2.0997821718	 0.127504
57.4939	68.9007	168.2563	206.051	315.807	373.5756	391.0349	493.4357	509.434	550.2531	637.0265	721.0182	749.7369	785.7959	806.1842	939.5084	944.5372	972.8812	1019.2968	1052.4238	1079.6917	1092.7983	1234.4456	1277.7692	1288.568	1356.3353	1395.6348	1413.0569	1437.8217	1482.6078	1497.5061	1504.854	1564.041	1704.4672	1879.2978	3028.4176	3038.8039	3066.5167	3107.7909	3111.6174	3116.0299	3178.0351
CCC1=COC(=O)N=C1	CCc1coc(=O)nc1	
InChI=1S/C6H7NO2/c1-2-5-3-7-6(8)9-4-5/h3-4H,2H2,1H3	InChI=1S/C6H7NO2/c1-2-5-3-7-6(8)9-4-5/h3-4H,2H2,1H3
