13
gdb 130699	5.78017	1.04671	0.88623	2.8232	79.55	-0.2376	-0.0744	0.1633	1201.8803	0.090333	-415.613706	-415.606447	-415.605503	-415.645514	27.558	
O	-0.0260351573	-0.0936056334	 0.0035302492	-0.385511
C	 0.0301999631	 1.1212546733	 0.0087556214	 0.441566
N	-1.1481670175	 1.8897820235	 0.0281369658	-0.272803
N	-1.2941398284	 3.2121378714	 0.036528707	-0.232264
C	-0.1899710184	 3.9250745262	 0.0253545225	 0.170141
C	 1.109309774	 3.3055231916	 0.0050665092	-0.129335
C	 1.2203826418	 1.957145177	-0.0029926463	-0.212538
C	-0.3122589008	 5.344341943	 0.0339094856	 0.254881
C	-0.3584436306	 6.5465539832	 0.0403745904	-0.388855
H	-2.0149460214	 1.3660372204	 0.03707935	 0.279971
H	 1.9847353911	 3.9454505489	-0.0034409684	 0.132293
H	 2.1763728388	 1.4480085905	-0.018185543	 0.137125
H	-0.4183918744	 7.6070672643	 0.0462958065	 0.205329
92.8461	148.0552	222.5122	371.6384	432.2833	447.0754	462.3707	530.4305	554.7888	610.0717	641.2516	675.0837	736.6175	755.4215	780.544	823.5405	872.3146	1000.1057	1021.3829	1137.5386	1225.1217	1249.6546	1281.8856	1419.9802	1444.658	1543.1588	1642.9832	1797.8379	2235.3629	3193.9982	3219.0139	3501.3875	3580.6215
O=C1NN=C(C=C1)C#C	O=c1[nH]nc(cc1)C#C	
InChI=1S/C6H4N2O/c1-2-5-3-4-6(9)8-7-5/h1,3-4H,(H,8,9)	InChI=1S/C6H4N2O/c1-2-5-3-4-6(9)8-7-5/h1,3-4H,(H,8,9)
