19
gdb 97763	6.63574	0.56654	0.55578	1.899	82.65	-0.2494	0.0236	0.2729	2016.8781	0.157263	-422.973683	-422.963627	-422.962683	-423.010986	34.893	
C	-0.5994655283	 1.1946637792	 0.1734208987	-0.399595
C	 0.2304240878	-0.0574550868	-0.0199145234	 0.176192
C	 1.031224662	-0.212635786	-1.3310467975	-0.308195
C	 2.2766384764	-0.2772814173	-0.4050404053	-0.044597
O	 1.4520224386	-0.0361743474	 0.7650211578	-0.298359
C	 2.9979632119	-1.5387268439	-0.3643189336	 0.082898
C	 3.5939806951	-2.5866674589	-0.3465436067	 0.050532
C	 4.3478089617	-3.836541486	-0.2670298226	-0.192942
O	 5.7266617545	-3.65386802	 0.021388228	-0.401346
H	-0.0262260112	 2.0873535296	-0.0960876894	 0.119105
H	-1.5010722115	 1.156355472	-0.4480937052	 0.116806
H	-0.9096688636	 1.2887224749	 1.2188469313	 0.129803
H	-0.36213307	-0.9478356459	 0.231001602	 0.080563
H	 0.8363686855	-1.1113438292	-1.9152478407	 0.119919
H	 1.0095832313	 0.6633778007	-1.9818801799	 0.112065
H	 2.9889553645	 0.5454390362	-0.546306757	 0.105954
H	 3.8666694124	-4.4988704533	 0.4706957658	 0.121535
H	 4.311897735	-4.3598391748	-1.2291938623	 0.140702
H	 5.7847710781	-3.0957090331	 0.80396474	 0.288961
21.013	36.0396	87.2373	118.5119	183.9883	229.51	260.9891	310.0925	356.4697	400.3915	495.4457	510.2272	574.2114	723.6704	748.939	878.9127	891.3183	913.0347	958.7072	980.2563	993.9949	1045.1048	1066.3723	1090.7326	1133.9248	1173.1806	1202.4337	1216.3097	1252.5459	1258.6484	1319.7226	1356.6949	1358.3331	1391.5984	1409.7019	1418.4279	1482.0582	1488.0954	1488.7304	1493.904	2350.8552	2975.636	3006.888	3019.8225	3032.0356	3061.0732	3083.8056	3104.639	3111.6845	3148.3992	3816.1536
CC1CC(O1)C#CCO	C[C@H]1C[C@@H](O1)C#CCO	
InChI=1S/C7H10O2/c1-6-5-7(9-6)3-2-4-8/h6-8H,4-5H2,1H3	InChI=1S/C7H10O2/c1-6-5-7(9-6)3-2-4-8/h6-8H,4-5H2,1H3/t6-,7-/m0/s1
