13
gdb 133596	3.22268	1.32874	1.18164	1.3713	50.66	-0.2696	0.0063	0.2758	993.9573	0.086924	-584.264994	-584.25759	-584.256645	-584.297893	26.406	
F	 0.0337482854	 0.0585124389	 0.196012435	-0.074134
C	-0.032235425	 1.3894917575	 0.0820905341	 0.269961
F	 1.2137661133	 1.859401537	-0.0095611906	-0.068006
F	-0.6708120166	 1.6771762232	-1.0638158687	-0.078515
C	-0.7873751551	 2.0118500767	 1.2510886555	-0.045891
C	-2.212127565	 1.4226591895	 1.4481825413	-0.21053
N	-2.1501963768	 0.7346425466	 2.7468486146	-0.248653
C	-0.9843165279	 0.9315754331	 3.1907086993	 0.126008
O	-0.0986736486	 1.6745150468	 2.4669114924	-0.223792
H	-0.7652621518	 3.0966354213	 1.1223793063	 0.125082
H	-2.9792551368	 2.2013541626	 1.4726953715	 0.131424
H	-2.4808626075	 0.7165468463	 0.6579587609	 0.142811
H	-0.5895665475	 0.5684733406	 4.1320376885	 0.154234
69.0696	84.2883	187.0193	252.705	346.3785	398.208	490.2571	529.6398	573.6089	674.2066	765.2918	814.6478	890.1052	954.0479	975.7181	986.5554	1020.6638	1047.3723	1111.4498	1172.1093	1207.6418	1227.8913	1293.7823	1302.0724	1323.7793	1342.0351	1405.4477	1499.5737	1719.0642	3063.8923	3089.5021	3105.7816	3231.2113
FC(F)(F)C1CN=CO1	FC(F)(F)[C@H]1CN=CO1	
InChI=1S/C4H4F3NO/c5-4(6,7)3-1-8-2-9-3/h2-3H,1H2	InChI=1S/C4H4F3NO/c5-4(6,7)3-1-8-2-9-3/h2-3H,1H2/t3-/m1/s1
