20
gdb 88185	3.42387	1.20127	1.04042	2.4283	83.6	-0.2254	0.0103	0.2358	1222.9891	0.172089	-403.129863	-403.121506	-403.120561	-403.162662	32.45	
C	-0.062573578	 1.5332923897	-0.109891657	-0.402059
C	 0.0037366611	 0.0316146717	 0.0482559954	-0.046868
N	 1.3085886407	-0.6137406489	-0.1486907155	-0.370844
C	 0.6706246788	-0.6631226355	 1.1915346	 0.293527
C	 1.3610753637	 0.108763051	 2.3032944221	-0.156289
O	 2.1211937909	-0.7532798498	 3.1353468756	-0.245827
C	 1.3264418675	-1.7123266123	 3.8007544922	-0.123855
C	 0.3721754394	-2.4212189249	 2.8790777424	-0.102006
C	 0.0994182763	-1.9458774256	 1.6641457866	-0.12022
H	 0.8397040651	 2.0161295892	 0.2710542331	 0.12945
H	-0.1583425593	 1.798296303	-1.1683598058	 0.12237
H	-0.9291283996	 1.9441686108	 0.4191580518	 0.118138
H	-0.8655578064	-0.4910625517	-0.3531934434	 0.07831
H	 1.2042760456	-1.5104397272	-0.618727891	 0.227697
H	 2.0664050439	 0.8303532823	 1.8889695022	 0.119237
H	 0.6075646308	 0.6491359263	 2.9020043888	 0.085347
H	 2.0262717275	-2.4273895012	 4.2487174697	 0.118553
H	 0.7690452192	-1.2474641388	 4.6370032635	 0.095443
H	-0.0822197263	-3.3385766458	 3.2426695439	 0.095452
H	-0.5628068111	-2.4805785424	 0.9859774154	 0.084444
88.6791	163.9814	190.2301	205.2004	268.5635	331.7813	394.6002	435.4905	473.6372	501.788	543.0574	687.892	717.5342	778.4742	871.7169	878.909	918.6337	963.5396	982.9771	986.1071	1008.4941	1030.9302	1045.2303	1089.9459	1096.9026	1123.7594	1145.1671	1199.6078	1242.4829	1247.7503	1284.4296	1323.6	1348.6855	1380.8065	1407.8634	1414.2104	1419.3742	1461.6585	1479.7113	1487.7225	1492.201	1502.3795	1712.5495	2918.115	2957.8183	3037.0075	3054.0433	3090.7796	3096.7212	3119.4812	3133.9825	3139.169	3174.3555	3488.5661
CC1NC11COCC=C1	C[C@H]1N[C@]21COCC=C2	
InChI=1S/C7H11NO/c1-6-7(8-6)3-2-4-9-5-7/h2-3,6,8H,4-5H2,1H3	InChI=1S/C7H11NO/c1-6-7(8-6)3-2-4-9-5-7/h2-3,6,8H,4-5H2,1H3/t6-,7+/m1/s1
