13
gdb 66894	2.66771	2.15209	1.48361	2.7418	61.24	-0.2446	-0.0466	0.198	842.9454	0.089464	-452.705624	-452.698911	-452.697967	-452.736604	25.966	
O	-0.1667973838	 1.3861900398	 0.0553974395	-0.440468
C	 0.0061153079	 0.0315852093	 0.0822495187	 0.22978
C	-0.1405406186	-0.8443620859	-1.2207125602	-0.089579
N	 0.726757981	-2.0048702621	-1.3984319145	-0.182578
C	 0.6552706282	-2.625470115	-0.291797686	 0.006031
N	-0.1889615861	-2.0143923273	 0.7246322192	-0.223478
C	-1.0453905111	-1.0732825356	-0.0766970794	-0.084769
C	 0.6068974394	-0.8003760975	 1.1574695227	 0.366318
O	 1.3269066534	-0.6701027447	 2.0918766344	-0.301902
H	 0.5591712503	 1.7899972958	-0.4336609525	 0.307707
H	-0.4319619203	-0.2813132391	-2.098897576	 0.126145
H	 1.2142936104	-3.5196740889	-0.044512725	 0.149885
H	-2.1197779506	-1.0334810888	 0.0405289891	 0.136909
135.0595	215.1531	276.6075	287.5274	402.4128	434.9539	518.3318	650.7143	693.1832	737.6847	772.3393	806.9137	856.4137	887.1537	907.2604	931.4626	957.5168	976.8866	1011.5227	1028.4167	1049.4006	1163.5718	1225.8685	1275.3956	1289.9698	1311.1896	1440.5462	1655.669	1924.4278	3203.7397	3215.9916	3226.9881	3799.9758
OC12C3N=CN(C13)C2=O	O[C@]12[C@H]3[N][CH]N([C@@H]13)C2=O	
InChI=1S/C5H4N2O2/c8-4-5(9)2-3(5)7(4)1-6-2/h1-3,9H	InChI=1S/C5H4N2O2/c8-4-5(9)2-3(5)7(4)1-6-2/h1-3,9H/t2-,3+,5+/m0/s1
