17
gdb 27354	1.94277	1.82079	0.95106	7.8442	79.08	-0.2223	-0.015	0.2073	1212.4204	0.136321	-418.087067	-418.07835	-418.077406	-418.120683	31.836	
C	-0.0173261993	 1.5090898888	 0.0848858908	-0.497623
C	-0.000484361	 0.0156843663	-0.0378018737	 0.378139
C	-0.0161175311	-0.6814063519	-1.1921796094	-0.300111
C	 0.0031455515	-2.1482999351	-1.1980040734	 0.373902
O	-0.0102555556	-2.8042906996	-2.2214407328	-0.367623
N	 0.038867676	-2.7841326269	 0.0692205529	-0.345526
C	 0.0525238218	-2.0735186993	 1.1424895644	 0.385729
C	 0.089952978	-2.7264778443	 2.4978490178	-0.488592
N	 0.034410161	-0.6979752817	 1.1456304995	-0.388831
H	 0.8746212391	 1.8729376192	 0.6088973431	 0.141304
H	-0.0461745128	 1.9710619118	-0.9025822837	 0.154214
H	-0.8933983511	 1.8497003899	 0.649700775	 0.141205
H	-0.0434000644	-0.1722245471	-2.1471958582	 0.109901
H	 0.1041572011	-3.8070025252	 2.3655983765	 0.169929
H	 0.9814877018	-2.4213532931	 3.0576218747	 0.137839
H	-0.7877741956	-2.449136887	 3.0928156125	 0.138055
H	 0.0467488007	-0.2041501945	 2.0240214441	 0.258089
90.7264	112.6419	147.8866	170.255	223.9582	270.9823	336.313	500.2346	504.1184	516.7699	558.0343	578.2695	615.2794	625.9691	784.4735	884.6445	896.8967	956.3969	976.7646	1042.1187	1058.6557	1066.6221	1092.5847	1153.2292	1218.7961	1305.768	1371.5903	1402.3435	1418.1703	1460.5766	1479.5563	1481.6657	1484.8119	1512.636	1655.4914	1707.8752	1774.712	3028.5097	3035.1333	3080.5902	3090.8165	3145.5831	3171.4103	3215.5906	3632.6656
CC1=CC(=O)N=C(C)N1	Cc1cc(=O)nc(C)[nH]1	
InChI=1S/C6H8N2O/c1-4-3-6(9)8-5(2)7-4/h3H,1-2H3,(H,7,8,9)	InChI=1S/C6H8N2O/c1-4-3-6(9)8-5(2)7-4/h3H,1-2H3,(H,7,8,9)
