18
gdb 61175	3.41032	0.84086	0.78153	4.3823	76.77	-0.2705	0.0064	0.2768	1468.6467	0.147186	-398.154776	-398.144738	-398.143794	-398.190146	35.532	
C	 0.0960372053	 1.6101258167	 0.0748886998	-0.413837
C	-0.0149279679	 0.0732910274	 0.0301435737	-0.13623
C	 0.7418584052	-0.5188805961	 1.1385750321	 0.286042
N	 1.3581081074	-0.9884254753	 1.9955650888	-0.318428
C	-1.4768163759	-0.4614131628	 0.0544041105	 0.017612
N	-2.1967698396	 0.076013371	 1.1954801363	-0.499271
C	-2.156172868	-0.2149743412	-1.3267273458	-0.372762
C	-3.5132697555	-0.7513889036	-1.3467686804	 0.256826
N	-4.5844360877	-1.1844384839	-1.3222725408	-0.29783
H	 1.14397996	 1.9144887033	 0.0312933255	 0.148948
H	-0.4202191763	 2.0652038855	-0.774956484	 0.123717
H	-0.3293306904	 1.9997377085	 1.0023269934	 0.154089
H	 0.4551435777	-0.2852446941	-0.8947556536	 0.125462
H	-1.4193819352	-1.5453295413	 0.1942729691	 0.127404
H	-2.4853527267	 1.036426006	 1.037641477	 0.234433
H	-3.0383724624	-0.4611665174	 1.3738011007	 0.256762
H	-2.2044568734	 0.8582983899	-1.5439408535	 0.152058
H	-1.5785093166	-0.6813252627	-2.1334796288	 0.155004
67.3429	73.8577	109.1568	175.9048	211.827	232.3172	266.8048	282.6702	325.8873	377.4666	396.9279	458.8486	518.4838	585.3714	663.6138	801.7425	839.9934	858.885	913.0185	951.8726	1004.1545	1032.5108	1062.1812	1113.8208	1159.7172	1185.6816	1264.0848	1286.3816	1334.1356	1340.135	1374.7219	1408.1485	1425.7786	1464.7306	1495.3501	1508.617	1667.4077	2361.806	2362.7812	3030.7529	3039.7378	3054.8846	3064.6311	3085.8677	3128.2503	3140.3371	3508.6061	3589.9256
CC(C#N)C(N)CC#N	C[C@@H](C#N)[C@@H](N)CC#N	
InChI=1S/C6H9N3/c1-5(4-8)6(9)2-3-7/h5-6H,2,9H2,1H3	InChI=1S/C6H9N3/c1-5(4-8)6(9)2-3-7/h5-6H,2,9H2,1H3/t5-,6-/m0/s1
