22
gdb 22244	2.85042	0.79497	0.74298	0.9517	83.49	-0.2434	0.0135	0.2569	1675.0077	0.189802	-441.447643	-441.436088	-441.435144	-441.485668	40.302	
C	-0.0248067343	 1.4725014566	-0.2597242012	-0.383633
C	-0.000249901	-0.0202000082	 0.0253936398	-0.033514
O	-1.3178540224	-0.5177119038	-0.1110216569	-0.264107
C	-1.4490520492	-1.9279019519	 0.0392190681	 0.052075
C	-1.4831627163	-2.3396615218	 1.5182800502	-0.410853
C	-2.7213358578	-2.3242348602	-0.6784096092	 0.377496
C	-4.0036386222	-1.6053453543	-0.365930331	-0.480224
N	-2.5991188224	-3.2826396163	-1.5136530606	-0.188002
O	-3.8289806424	-3.6267719965	-2.0990703346	-0.398536
H	 0.9807273656	 1.8942463389	-0.1691142608	 0.114214
H	-0.3936929759	 1.6629504827	-1.2714368489	 0.127849
H	-0.6819537204	 1.9874769388	 0.4468875162	 0.125306
H	 0.6715170106	-0.5373383775	-0.679488553	 0.090025
H	 0.3902659217	-0.2055521377	 1.0384432688	 0.087639
H	-0.6167258983	-2.4395927429	-0.4632475091	 0.083175
H	-1.590374797	-3.4249640998	 1.6048177642	 0.127254
H	-0.5595336812	-2.0496044589	 2.0271726931	 0.119614
H	-2.3215176245	-1.8618933308	 2.0338823039	 0.124282
H	-3.7954745951	-0.6504468155	 0.117523701	 0.139488
H	-4.5728830941	-1.438605526	-1.2831766095	 0.147597
H	-4.6362611411	-2.2095414376	 0.2948356567	 0.137944
H	-3.5691159925	-4.3140275973	-2.7213701272	 0.304911
37.5915	48.9073	87.2851	100.4094	128.2459	202.9698	223.3515	246.8911	287.9023	300.4767	340.3907	359.2609	395.5923	453.203	539.0624	580.0256	659.1968	798.0712	821.0659	859.0404	937.6794	969.7561	997.2365	1034.2336	1055.0926	1088.9001	1109.3536	1144.4876	1152.689	1187.7453	1280.0366	1297.1379	1333.7042	1354.8539	1392.9668	1397.7675	1400.515	1406.4778	1437.7488	1477.1502	1482.9092	1483.8505	1494.6547	1496.0411	1500.6816	1529.0701	1735.2597	2964.9114	2993.3521	3014.804	3041.8316	3043.571	3044.694	3109.593	3115.9695	3118.8324	3120.0736	3122.3709	3154.6234	3821.6802
CCOC(C)C(C)=NO	CCO[C@@H](C)C(=NO)C	
InChI=1S/C6H13NO2/c1-4-9-6(3)5(2)7-8/h6,8H,4H2,1-3H3	InChI=1S/C6H13NO2/c1-4-9-6(3)5(2)7-8/h6,8H,4H2,1-3H3/t6-/m0/s1
