23
gdb 86209	2.4401	1.29216	1.00395	1.411	87.66	-0.2393	0.0265	0.2659	1302.2686	0.206242	-388.314275	-388.304777	-388.303833	-388.347971	37.1	
C	-0.1015886799	 1.5771470593	 0.0199974271	-0.399403
C	-0.017423097	 0.0430382621	 0.0072047656	-0.023189
C	 0.6283421857	-0.4823037606	-1.286344392	-0.233975
C	 0.973183023	-1.9701874063	-1.1735915669	 0.110698
O	 1.493041331	-2.5009429142	-2.3868660114	-0.445972
C	 2.0077720961	-2.2239742299	-0.0625509728	-0.028496
C	 3.4529610976	-1.8896278376	-0.4810985779	-0.385842
C	 1.6089047248	-1.4729069399	 1.1846658919	-0.085983
C	 0.7201445336	-0.4804003246	 1.2167803201	-0.04249
H	 0.898584815	 2.0228829914	-0.0120492883	 0.118339
H	-0.6648018553	 1.9471259566	-0.843259434	 0.110209
H	-0.600017796	 1.938164491	 0.9258720837	 0.111526
H	-1.0506248256	-0.3378049371	 0.0536825002	 0.080529
H	-0.0503582663	-0.3214661626	-2.1347917222	 0.076219
H	 1.5421414742	 0.0844243817	-1.5024171395	 0.105033
H	 0.0529765766	-2.5116809972	-0.8949026843	 0.062095
H	 0.8527761119	-2.326254552	-3.0836820625	 0.277832
H	 1.9839686775	-3.2991004319	 0.163007477	 0.07986
H	 3.5622222381	-0.8302748022	-0.7326070379	 0.112797
H	 4.1429991691	-2.1045874362	 0.3413235746	 0.104795
H	 3.7476458052	-2.4814893712	-1.3494850087	 0.133077
H	 2.1055582504	-1.7756417251	 2.1044703607	 0.083428
H	 0.4914843103	 0.0034591665	 2.1649137775	 0.078911
79.4399	161.2346	210.364	235.7807	248.2179	270.0541	283.0796	288.7479	363.3611	407.1867	444.1328	475.8083	566.9491	593.9253	708.6051	764.3211	795.7445	841.6115	921.3496	944.8053	970.8077	994.2133	1008.2895	1034.7541	1060.2663	1071.3914	1114.0324	1122.4027	1127.3201	1174.1657	1184.6417	1250.0728	1262.3844	1293.658	1325.8172	1338.5765	1354.076	1362.4609	1397.0692	1402.6218	1405.3836	1414.1639	1442.1178	1485.5169	1495.5569	1499.1426	1501.5563	1505.0372	1718.4118	2947.0187	2966.6933	3006.7996	3014.3577	3027.8653	3042.0298	3061.7254	3097.7138	3099.518	3104.6458	3129.9025	3137.5155	3154.4233	3818.7506
CC1CC(O)C(C)C=C1	C[C@H]1C[C@@H](O)[C@@H](C)C=C1	
InChI=1S/C8H14O/c1-6-3-4-7(2)8(9)5-6/h3-4,6-9H,5H2,1-2H3	InChI=1S/C8H14O/c1-6-3-4-7(2)8(9)5-6/h3-4,6-9H,5H2,1-2H3/t6-,7+,8-/m1/s1
