17
gdb 127607	2.09834	1.70602	1.00101	1.1113	72.4	-0.2108	0.012	0.2228	1157.0738	0.136296	-455.151919	-455.142761	-455.141817	-455.185876	32.847	
C	-0.1666549907	 1.3818636971	 0.0667559961	-0.338208
N	-0.0711834459	-0.0639841092	 0.0908920436	-0.008332
N	-0.0668764702	-0.7559939021	-1.0546973743	-0.26259
C	 0.0644125673	-2.0352822349	-0.6940605299	-0.116482
C	 0.142085325	-2.1546313262	 0.705891557	 0.144958
O	 0.2650208721	-3.2641025355	 1.4894475585	-0.448752
C	 0.0568653816	-0.8612641584	 1.1963250061	 0.252063
C	 0.05565031	-0.3565506965	 2.599760991	-0.194771
O	-1.1568966186	 0.3091137162	 2.9637889959	-0.411077
H	 0.8215883046	 1.8471177649	 0.159451299	 0.134699
H	-0.6050808514	 1.6690701836	-0.8887472421	 0.154641
H	-0.7998161079	 1.7136563372	 0.8915874584	 0.161025
H	 0.0883888724	-2.8122978112	-1.4447158743	 0.103935
H	 0.3332063574	-4.0374416434	 0.9221761466	 0.301158
H	 0.2676954831	-1.2024626584	 3.2666061808	 0.122891
H	 0.8417628328	 0.3898823955	 2.7588393134	 0.120075
H	-1.8789738415	-0.3069206588	 2.7981195241	 0.284768
94.4815	129.9897	133.2122	181.5887	203.9954	238.4446	291.1078	331.0405	368.788	423.8267	526.7324	598.2791	663.049	693.0897	760.0133	787.3417	822.086	939.0772	1026.0043	1042.1823	1103.7145	1152.963	1161.5773	1216.8137	1228.225	1287.094	1357.6321	1375.4933	1400.6824	1414.938	1430.4659	1461.8362	1490.6029	1501.1192	1509.0208	1536.9989	1648.4152	3023.3736	3035.404	3067.7601	3117.6225	3166.6407	3234.8024	3806.2598	3843.4365
CN1N=CC(O)=C1CO	Cn1ncc(O)c1CO	
InChI=1S/C5H8N2O2/c1-7-4(3-8)5(9)2-6-7/h2,8-9H,3H2,1H3	InChI=1S/C5H8N2O2/c1-7-4(3-8)5(9)2-6-7/h2,8-9H,3H2,1H3
