17
gdb 84296	2.26451	1.89317	1.17538	4.213	75.01	-0.2391	-0.0574	0.1817	1049.407	0.135597	-421.838425	-421.830416	-421.829472	-421.871171	30.34	
C	-0.0946072937	 1.6092912087	-0.0720197856	-0.40602
C	 0.020830079	 0.080843145	 0.0223437631	-0.143739
C	 0.8084783738	-0.5191952657	-1.1234819293	-0.060973
C	 1.8221072935	-1.3076825459	-0.7418259345	-0.194484
C	 1.88663224	-1.3726010583	 0.7332995682	 0.328503
O	 2.6514471431	-1.9956261651	 1.431057354	-0.331549
C	 0.7714480305	-0.4611257616	 1.2381677306	 0.311829
C	 0.9097040165	 0.1875497421	 2.5521720478	-0.229549
O	 0.0419296609	-0.9256219687	 2.3757990584	-0.262399
H	 0.8910141161	 2.0827336944	-0.0253233684	 0.126097
H	-0.567452072	 1.9036143476	-1.0146892286	 0.120746
H	-0.7061885696	 2.0067518692	 0.7428546552	 0.130461
H	-0.9925176351	-0.3432908015	 0.0253637922	 0.115622
H	 0.5478587935	-0.2947641818	-2.1532840506	 0.119176
H	 2.5112316517	-1.840883627	-1.3837976567	 0.124768
H	 1.8091440679	-0.0142756016	 3.1315565435	 0.134994
H	 0.4220829538	 1.1439311502	 2.7327612708	 0.116514
53.5891	210.1591	220.8519	254.3371	265.0456	288.6512	338.9581	482.8155	504.8676	588.271	670.996	716.3442	740.4496	836.5201	849.0887	894.3774	912.5404	958.5447	1002.8644	1031.3411	1081.0908	1091.0186	1111.1853	1134.3482	1144.5443	1174.5872	1244.0432	1279.6685	1328.0706	1364.354	1399.5355	1419.4882	1495.4955	1500.2238	1513.0368	1641.663	1821.0095	3019.2207	3036.9968	3087.1261	3105.5785	3116.2188	3181.9918	3182.254	3227.0117
CC1C=CC(=O)C11CO1	C[C@H]1C=CC(=O)[C@]21CO2	
InChI=1S/C7H8O2/c1-5-2-3-6(8)7(5)4-9-7/h2-3,5H,4H2,1H3	InChI=1S/C7H8O2/c1-5-2-3-6(8)7(5)4-9-7/h2-3,5H,4H2,1H3/t5-,7+/m0/s1
