17
gdb 81815	2.15318	1.73356	1.17583	5.9463	72.72	-0.255	0.0262	0.2813	1074.6714	0.136057	-417.98046	-417.972041	-417.971096	-418.013407	31.774	
C	-0.1191284902	 1.4955026529	 0.03733833	-0.512166
C	 0.1207994194	 0.0195956158	-0.0037738327	 0.35203
N	-0.7327569605	-0.9499810833	 0.7206745395	-0.383399
C	 0.7309574743	-0.9228325531	 0.9752157969	-0.155774
C	 1.2997733117	-1.8196739517	-0.1312922316	 0.154434
O	 0.8528091916	-3.1305803869	-0.1739523092	-0.417734
C	 0.7032557316	-0.7720513394	-1.1929370549	-0.291263
C	-0.2264164658	-1.274016371	-2.1881416882	 0.307778
N	-0.970966713	-1.6769172069	-2.9754177852	-0.336209
H	 0.7573126189	 2.0459626179	-0.3197730828	 0.13345
H	-0.9702512297	 1.7718695652	-0.5946430946	 0.148658
H	-0.3335503791	 1.8285106068	 1.0583438403	 0.126086
H	-1.1957769307	-0.454223045	 1.4805185841	 0.238337
H	 1.1228790864	-0.7485677835	 1.9698191951	 0.106313
H	 2.389713459	-1.8351200309	-0.1786929739	 0.105378
H	-0.0999409139	-3.0972728172	-0.0041438823	 0.302888
H	 1.5139282601	-0.2261202897	-1.6827615203	 0.121193
101.175	124.3997	172.3057	213.8684	243.1388	339.2711	377.2003	399.3058	514.565	537.9584	567.4668	607.1213	707.8419	740.8812	801.4345	850.4528	918.5969	924.6304	973.8825	1014.9205	1038.7873	1065.9743	1094.039	1105.8144	1144.1875	1159.3107	1232.124	1267.6037	1299.9497	1332.4908	1350.5908	1412.2102	1443.8138	1458.6371	1482.3253	1497.7927	2355.9132	3030.9065	3080.7399	3098.0713	3103.2866	3108.9569	3193.3577	3493.0901	3741.7338
CC12NC1C(O)C2C#N	C[C@]12N[C@H]1[C@@H](O)[C@H]2C#N	
InChI=1S/C6H8N2O/c1-6-3(2-7)4(9)5(6)8-6/h3-5,8-9H,1H3	InChI=1S/C6H8N2O/c1-6-3(2-7)4(9)5(6)8-6/h3-5,8-9H,1H3/t3-,4+,5+,6-/m1/s1
