21
gdb 74550	4.207	1.15739	0.95098	0.874	96.13	-0.1978	-0.0051	0.1927	1289.1344	0.184746	-349.993638	-349.985672	-349.984728	-350.025845	31.882	
C	 0.0516228219	 1.4900754179	-0.0091702135	-0.486533
C	-0.0433339456	-0.0006504	-0.0179527093	 0.315361
C	-0.0521966162	-0.8087984096	-1.0984825981	-0.31482
C	-0.0792842266	-2.1973379795	-0.6776486198	 0.396184
C	 0.2615831707	-3.4092410772	-1.1275563869	-0.255445
C	 0.2282150633	-4.4167352522	 0.0100113262	-0.240748
C	 0.2445050964	-3.5148753214	 1.280981886	-0.241863
C	-0.4375658372	-2.2230643742	 0.7986528565	-0.039266
C	-0.0589007973	-0.8058143011	 1.279525423	-0.349362
H	 0.9446828208	 1.8258206591	 0.5344799928	 0.12736
H	 0.0944794738	 1.901099491	-1.0214389139	 0.12406
H	-0.8077702805	 1.938524207	 0.506456531	 0.127058
H	 0.0240518281	-0.4679820794	-2.1249306469	 0.090791
H	 0.5557183046	-3.6653754126	-2.1387023014	 0.082954
H	-0.6831557853	-5.034032392	-0.0219902228	 0.099875
H	 1.070742241	-5.1171133931	-0.0174504624	 0.097391
H	-0.2420117197	-3.9811852715	 2.1427009612	 0.088267
H	 1.2842258632	-3.3019465281	 1.5571929222	 0.096583
H	-1.5295067431	-2.3303419773	 0.8869906648	 0.078254
H	 0.9416583683	-0.7833120443	 1.738731571	 0.105393
H	-0.7500158305	-0.3918905714	 2.0225034402	 0.098506
119.5085	155.2467	185.6789	258.8528	289.7285	371.7524	429.6894	466.1226	517.0886	606.8287	660.5978	715.1553	801.8105	814.179	851.3322	870.5945	881.6639	913.4578	946.1186	975.4194	981.8416	1016.6722	1033.6862	1078.6807	1093.0928	1142.5265	1157.3323	1184.1237	1195.5242	1221.1592	1260.1245	1288.0889	1294.6804	1304.0912	1332.9109	1346.3897	1364.5016	1410.9531	1475.9145	1479.316	1483.689	1484.2587	1497.0863	1659.7536	1715.7581	2980.2783	2985.5714	2992.925	3012.5899	3033.73	3054.7535	3055.2615	3056.8443	3089.7775	3109.6293	3193.7828	3195.9966
CC1=CC2=CCCC2C1	CC1=CC2=CCC[C@H]2C1	
InChI=1S/C9H12/c1-7-5-8-3-2-4-9(8)6-7/h3,5,9H,2,4,6H2,1H3	InChI=1S/C9H12/c1-7-5-8-3-2-4-9(8)6-7/h3,5,9H,2,4,6H2,1H3/t9-/m0/s1
