23
gdb 120668	4.34469	0.72084	0.6791	1.2693	87.11	-0.2548	0.0816	0.3363	1737.4167	0.205186	-388.261426	-388.251546	-388.250602	-388.297	36.539	
O	 0.0345075774	 1.4319990426	 0.3007140638	-0.422585
C	 0.0101903714	 0.0178914549	 0.4323151163	-0.063925
C	-1.2224295221	-0.501219375	-0.2998875188	-0.198714
C	-1.3482265199	-2.0081096194	-0.2394474425	-0.080442
C	-1.9803634866	-2.6832028915	 0.9625843794	-0.350867
C	-2.6847791732	-2.6776246583	-0.3654521109	 0.370414
C	-4.0581811819	-2.0462821807	-0.6464806328	-0.288324
C	-4.5352822687	-3.4329692901	-1.172115595	-0.205852
C	-3.0569885352	-3.9233205317	-1.1831954126	-0.29455
H	 0.8070004189	 1.7638321327	 0.7670468704	 0.283993
H	 0.9167637621	-0.4380886797	 0.0007639068	 0.080707
H	-0.0336785609	-0.2865337517	 1.4901257791	 0.087254
H	-2.109988898	-0.0299750249	 0.1384245663	 0.103765
H	-1.1731918344	-0.1618925667	-1.3423957874	 0.103039
H	-0.5175271884	-2.5478045534	-0.6926764513	 0.075152
H	-1.554030965	-3.6162599156	 1.318727172	 0.104554
H	-2.3764587201	-2.045441871	 1.7485882323	 0.105892
H	-4.5992150011	-1.6315897766	 0.2084363272	 0.096551
H	-4.0237173252	-1.2861000539	-1.4339344586	 0.101046
H	-5.1437807311	-3.9671617085	-0.4383954394	 0.103343
H	-5.0618609876	-3.4397546963	-2.1288046639	 0.096676
H	-2.6180495668	-3.9184932539	-2.1865825647	 0.097451
H	-2.8560308236	-4.8950991313	-0.7231256256	 0.095421
61.0399	78.17	95.6895	110.2487	200.3587	259.5272	261.9485	305.6	366.1798	417.4254	480.3672	600.7335	706.9728	787.7065	793.1022	836.594	873.6552	880.0953	912.1278	935.2652	938.8549	961.8633	1004.4549	1044.0814	1054.5393	1075.8751	1097.0429	1097.217	1145.1916	1175.2922	1193.1032	1215.6034	1227.9404	1237.5705	1246.7105	1254.4072	1270.9665	1281.9151	1311.3563	1321.1362	1349.2503	1430.287	1459.9807	1477.4018	1479.938	1487.707	1496.6181	1507.3874	1526.9658	2959.8615	2988.9733	3026.3131	3038.6788	3043.4573	3064.8472	3068.4876	3085.5792	3090.4861	3109.7039	3111.2563	3120.0276	3194.6265	3830.5325
OCCC1CC11CCC1	OCC[C@H]1CC21CCC2	
InChI=1S/C8H14O/c9-5-2-7-6-8(7)3-1-4-8/h7,9H,1-6H2	InChI=1S/C8H14O/c9-5-2-7-6-8(7)3-1-4-8/h7,9H,1-6H2/t7-/m0/s1
