18
gdb 90599	2.37366	1.50446	1.19012	3.1157	72.13	-0.2317	-0.0141	0.2176	1104.3774	0.147192	-439.064851	-439.056247	-439.055303	-439.098359	31.823	
C	-0.0683244468	 1.5815171385	-0.0897030437	-0.413638
C	 0.0042202274	 0.0638894649	 0.0212529479	-0.002325
C	 1.0535791921	-0.6557496622	-0.8935974543	-0.209221
N	 1.7629308209	-1.1685150731	 0.3214995116	-0.127063
C	 0.7436721751	-0.5706368815	 1.2471072242	-0.006468
C	 1.8601062581	 0.1787476907	 2.0078400017	-0.02288
O	 2.0160686192	-0.2723922792	 3.3295607309	-0.429024
C	 2.7983639903	-0.3905236267	 0.8906547847	 0.32828
O	 3.9243928441	-0.1885127366	 0.5354493625	-0.321069
H	 0.9226263383	 2.0455018576	-0.0434590407	 0.126388
H	-0.5201707326	 1.8731662592	-1.0435107294	 0.124871
H	-0.6775060152	 2.0083556815	 0.7140247038	 0.127096
H	-0.9980772749	-0.3579327787	-0.0915374794	 0.086724
H	 0.6531695185	-1.4649259559	-1.5085749263	 0.121261
H	 1.681873879	-0.0100752559	-1.5143547494	 0.126639
H	 0.1718274258	-1.2657391417	 1.8641496496	 0.097111
H	 1.8102830841	 1.2757322824	 1.9483936823	 0.095161
H	 2.8796030766	 0.0185571367	 3.642602234	 0.298156
56.815	151.3131	171.3448	213.9181	248.0143	278.6736	297.041	376.0116	414.3328	488.9614	656.74	701.1706	784.9799	801.9213	855.4424	896.3977	918.3066	958.0994	984.0791	1000.0314	1086.1614	1097.5191	1122.2637	1138.7064	1156.3135	1180.9836	1209.8421	1240.2104	1258.7338	1297.3665	1303.0956	1318.5215	1361.2673	1412.9102	1414.097	1493.2813	1500.5072	1506.4651	1877.6052	2999.4821	3031.669	3056.1944	3065.1161	3099.1718	3101.9488	3102.5297	3113.0815	3810.968
CC1CN2C1C(O)C2=O	C[C@H]1CN2[C@H]1[C@@H](O)C2=O	
InChI=1S/C6H9NO2/c1-3-2-7-4(3)5(8)6(7)9/h3-5,8H,2H2,1H3	InChI=1S/C6H9NO2/c1-3-2-7-4(3)5(8)6(7)9/h3-5,8H,2H2,1H3/t3-,4+,5+/m0/s1
