20
gdb 38449	3.95717	1.23168	1.13154	2.0724	77.51	-0.2349	0.0674	0.3022	1135.161	0.173211	-403.099335	-403.091688	-403.090744	-403.132497	29.805	
C	-0.121841281	 1.3294542269	-0.0457462393	-0.246235
C	 1.1667201066	 0.6242292935	 0.0989586891	-0.100731
N	-0.1415535771	-0.1428505044	-0.0214238772	-0.124511
C	 0.297694607	-0.5638174733	-1.4003381545	-0.2306
C	 1.697608415	 0.0984982759	-1.2316950076	 0.350451
C	 2.2262439623	 1.0685316844	-2.3173438166	-0.329785
C	 3.4713255825	 0.3489360447	-2.8915490291	-0.074232
O	 3.4097160859	-0.9891324504	-2.4129114888	-0.244079
C	 2.8551983687	-0.9063241346	-1.1144267406	-0.151062
H	-0.550896388	 1.7732802013	 0.8476058183	 0.121893
H	-0.3645628638	 1.8479294358	-0.9713945235	 0.109923
H	 1.7334574921	 0.6384407457	 1.0266024015	 0.09152
H	 0.3267867825	-1.6528794056	-1.4789455373	 0.115263
H	-0.3420542315	-0.1650837306	-2.1959407315	 0.099005
H	 1.4710261232	 1.242060517	-3.088070988	 0.108642
H	 2.4850968735	 2.0410992893	-1.8888612852	 0.107009
H	 3.497678024	 0.3121452118	-3.9834137799	 0.10986
H	 4.3956971795	 0.8352265818	-2.5417097507	 0.090542
H	 3.6035018514	-0.533825686	-0.3908226031	 0.081173
H	 2.5473542872	-1.9083885031	-0.8057314462	 0.115954
25.8242	136.3808	201.3096	272.6069	373.8895	397.2249	458.4339	508.5323	671.6892	733.3968	758.7092	792.7297	814.6606	855.7958	920.9418	937.6683	969.4983	972.3195	977.2196	986.3708	1042.1262	1056.8037	1099.3053	1106.9677	1113.9835	1156.7708	1170.3306	1187.2876	1214.854	1230.8333	1249.1289	1252.8966	1279.5182	1293.0412	1309.4469	1357.482	1381.5839	1403.1395	1488.1649	1493.2907	1503.5765	1511.7	1524.4421	2936.1365	2977.4777	3036.8242	3057.9988	3088.1421	3094.7115	3100.1352	3105.7676	3107.5018	3140.2687	3194.014
C1C2N1CC21CCOC1	C1[C@H]2N1C[C@]12CCOC1	
InChI=1S/C7H11NO/c1-2-9-5-7(1)4-8-3-6(7)8/h6H,1-5H2	InChI=1S/C7H11NO/c1-2-9-5-7(1)4-8-3-6(7)8/h6H,1-5H2/t6-,7-,8?/m1/s1
