17
gdb 72367	2.44374	1.736	1.47063	1.5785	72.73	-0.2219	-0.031	0.1909	967.2846	0.136192	-418.028898	-418.020885	-418.019941	-418.061518	30.413	
C	 0.1909487656	 1.6101143559	-0.0109646585	-0.464506
C	-0.0055691394	 0.108835741	 0.0848944049	 0.194868
N	-1.4110884239	-0.2994480598	 0.1525546108	-0.336685
C	-1.5019259076	-1.3172259785	 1.0897961404	 0.058079
N	-0.471566581	-1.5741743646	 1.8019147832	-0.24883
C	 0.6103669999	-0.7357178008	 1.2724575348	-0.047189
C	 1.5455182988	-1.4955820611	 0.286695056	-0.346293
C	 0.8509847808	-0.766905019	-0.8774522217	 0.359667
O	 0.9021603916	-0.8543977554	-2.069834509	-0.299465
H	 1.2532867378	 1.8689617145	 0.0454056478	 0.123407
H	-0.1926242033	 1.9925302967	-0.9627382494	 0.132292
H	-0.3360113627	 2.1143992932	 0.8042972867	 0.131538
H	-1.9657656128	-0.3374151157	-0.6903122766	 0.25327
H	-2.457473514	-1.8179573564	 1.220747284	 0.129262
H	 1.1150806471	-0.1872832506	 2.070146228	 0.086317
H	 2.6073293259	-1.2383927454	 0.3667268573	 0.133197
H	 1.4440354071	-2.5844207841	 0.2875609514	 0.14107
61.6721	170.9985	194.7225	238.1748	279.9808	327.0026	430.4695	488.1033	496.5567	574.8901	612.7552	675.5324	769.3246	798.5017	836.6379	915.0501	943.9191	957.4799	978.6234	1018.477	1048.2532	1101.2014	1127.0106	1152.4858	1171.3871	1198.884	1218.6318	1282.538	1302.7619	1345.0583	1400.8527	1408.7078	1423.0368	1484.7907	1489.7545	1672.9582	1884.1675	3033.8042	3051.5188	3091.1543	3103.0208	3112.6303	3114.6916	3181.8614	3611.2793
CC12NC=NC1CC2=O	C[C@]12NC=N[C@H]1CC2=O	
InChI=1S/C6H8N2O/c1-6-4(2-5(6)9)7-3-8-6/h3-4H,2H2,1H3,(H,7,8)	InChI=1S/C6H8N2O/c1-6-4(2-5(6)9)7-3-8-6/h3-4H,2H2,1H3,(H,7,8)/t4-,6-/m0/s1
