17
gdb 16188	4.41102	1.57054	1.37628	1.5414	63.39	-0.2507	0.078	0.3287	920.7379	0.144016	-400.970975	-400.963679	-400.962735	-401.0028	27.498	
O	 0.0906048094	 1.3033419776	-0.4310085468	-0.419679
C	 0.0399652634	 0.0315764782	 0.1973852146	-0.146572
C	-1.3640505496	-0.5103260785	 0.2163138599	 0.295827
C	-2.4193435019	 0.1021238644	 1.1258307343	-0.148111
O	-3.5253032197	-0.7976925637	 1.0810782842	-0.259848
C	-3.0083904971	-2.1145487101	 0.9008796589	-0.108709
C	-1.7560887569	-1.9345526986	 0.0614463636	-0.098541
N	-1.8692290526	-1.0107609973	-1.076498519	-0.381823
H	-0.2428462713	 1.1723146865	-1.3264449896	 0.290847
H	 0.702359991	-0.690344939	-0.3013708946	 0.096468
H	 0.4095711238	 0.1803161929	 1.2179781112	 0.108054
H	-2.0179100305	 0.1993025738	 2.1478525402	 0.097348
H	-2.7754749226	 1.0838683542	 0.7998216265	 0.121748
H	-2.7494554846	-2.5858851423	 1.8630191898	 0.100202
H	-3.7917875701	-2.7114980033	 0.4222559491	 0.116205
H	-1.0479375065	-2.7508160148	-0.0388788438	 0.098316
H	-2.8452511042	-0.7406927899	-1.1951938385	 0.238267
63.7188	152.9847	250.8965	293.5127	318.1234	412.1078	434.653	459.3644	665.7219	704.5834	767.5029	880.1082	893.6927	927.5953	948.0809	980.0795	1023.9434	1047.8251	1061.1532	1080.8952	1105.1249	1139.0221	1184.9147	1194.5942	1224.2998	1257.5527	1306.0536	1316.4133	1347.8375	1370.7595	1390.7056	1423.5779	1459.7004	1494.7589	1505.9345	1518.9639	2972.7984	2978.6257	3001.5326	3071.4556	3072.1052	3084.3592	3167.3161	3466.0008	3794.6182
OCC12COCC1N2	OC[C@]12COC[C@H]1N2	
InChI=1S/C5H9NO2/c7-2-5-3-8-1-4(5)6-5/h4,6-7H,1-3H2	InChI=1S/C5H9NO2/c7-2-5-3-8-1-4(5)6-5/h4,6-7H,1-3H2/t4-,5+/m1/s1
