23
gdb 122976	2.16605	1.18135	0.86704	2.266	79.83	-0.2312	0.0735	0.3046	1437.7278	0.203493	-462.541069	-462.530067	-462.529123	-462.577951	38.981	
C	 0.6633482296	 0.4770761291	-0.7392610081	-0.244612
O	 0.2027443512	-0.8052142583	-0.3683337338	-0.249494
C	-1.184331114	-0.8862546981	-0.0272232921	 0.130911
C	-2.0795642089	-0.8041541948	-1.2638763773	-0.39761
C	-1.3829005651	-2.190090978	 0.7464428967	-0.098578
O	-1.2358260589	-3.3081353296	-0.1095940922	-0.258852
C	-0.3588714149	-4.3364060718	 0.3281928562	-0.077318
C	 1.1004387824	-4.0726101678	-0.039004252	-0.064273
O	 1.6678324218	-2.9882494582	 0.6648192396	-0.434557
H	 1.747469552	 0.4073078448	-0.8536794152	 0.136947
H	 0.231881229	 0.8144468295	-1.6907321243	 0.11842
H	 0.4344546221	 1.2248722122	 0.0346785998	 0.111212
H	-1.4233264779	-0.0590810373	 0.662321405	 0.066473
H	-1.8605170538	-1.6390175414	-1.9323451136	 0.145237
H	-3.1319894255	-0.8622860351	-0.96857288	 0.118377
H	-1.939146926	 0.1359656679	-1.8037070236	 0.11265
H	-0.6664279551	-2.2265973065	 1.5735683197	 0.116779
H	-2.3993161299	-2.1850749284	 1.1707169689	 0.090351
H	-0.4454845864	-4.4837363347	 1.4145488149	 0.095118
H	-0.6970414661	-5.2549956792	-0.1672884211	 0.097537
H	 1.6866162474	-4.9656805079	 0.2142388605	 0.094922
H	 1.1686765699	-3.9299108449	-1.1288337435	 0.088711
H	 1.289746897	-2.1747655714	 0.2953299054	 0.301652
53.2957	67.4393	79.8231	124.1108	178.9925	195.684	208.3146	239.5827	308.4269	335.6915	342.3068	390.9538	457.8334	511.4945	643.7562	685.4885	789.3494	842.2978	896.4326	921.4509	932.3748	974.7575	1062.593	1087.0191	1110.2483	1122.7972	1139.014	1158.7275	1180.233	1184.2598	1225.242	1247.5723	1299.7606	1310.6736	1365.7974	1376.3741	1394.6386	1400.2936	1408.9741	1426.3843	1456.1328	1477.2905	1480.1756	1482.6904	1488.4121	1493.3847	1499.9184	1505.1633	1512.743	2962.8599	2982.5542	2984.3433	2990.409	2999.2093	3045.7755	3049.0932	3052.3048	3059.5368	3073.4291	3113.2692	3120.6717	3143.386	3669.775
COC(C)COCCO	CO[C@@H](C)COCCO	
InChI=1S/C6H14O3/c1-6(8-2)5-9-4-3-7/h6-7H,3-5H2,1-2H3	InChI=1S/C6H14O3/c1-6(8-2)5-9-4-3-7/h6-7H,3-5H2,1-2H3/t6-/m0/s1
