17
gdb 74546	3.41212	1.49296	1.35175	0.9505	74.52	-0.2349	-0.012	0.2228	1003.1737	0.134445	-421.666873	-421.659503	-421.658559	-421.698337	29.553	
C	 0.0537067022	 1.5137342089	 0.0144009515	-0.518576
C	 0.0239799444	 0.0269581022	-0.006118714	 0.401195
C	 0.0147084548	-0.8774610725	-0.9887337276	-0.241755
C	-0.0180852074	-2.207347412	-0.2384831634	 0.282786
C	-1.0195164489	-3.2259861862	-0.841279927	-0.189776
O	-2.0837981864	-2.4207910034	-0.1799169308	-0.31154
C	-1.0435188333	-2.0419455588	 0.8065706066	 0.119726
C	-0.0084392424	-0.8908334285	 1.2114188246	-0.139379
O	 1.0065971957	-1.9412192095	 0.8589943555	-0.351533
H	 0.9405882621	 1.8878672822	 0.5411441065	 0.136141
H	 0.0600469391	 1.92483903	-0.9984004854	 0.133462
H	-0.8190614756	 1.9215146675	 0.539512076	 0.135829
H	 0.0228950883	-0.7557580643	-2.0623840483	 0.104838
H	-1.1437671501	-3.2330208681	-1.9273868264	 0.12439
H	-0.982310347	-4.2394197292	-0.430399064	 0.124685
H	-1.0491789713	-2.7961592539	 1.5984473377	 0.102498
H	 0.1168415059	-0.5046081746	 2.2237465585	 0.087009
145.3661	166.1181	254.6081	299.6856	318.7602	393.5455	503.6948	558.0895	568.8434	616.7611	717.3343	775.6436	781.7645	806.1386	843.8129	865.2489	877.4794	911.8217	943.6063	1010.3167	1035.5011	1060.8007	1081.1051	1113.266	1144.7097	1163.0983	1201.9023	1238.2751	1273.854	1289.3662	1315.8677	1378.366	1414.6831	1478.5924	1484.9038	1493.3886	1693.5746	3020.0875	3046.8113	3066.9674	3069.8661	3114.8685	3118.9593	3122.1608	3235.0353
CC1=CC23COC2C1O3	CC1=C[C@]23CO[C@@H]2[C@H]1O3	
InChI=1S/C7H8O2/c1-4-2-7-3-8-6(7)5(4)9-7/h2,5-6H,3H2,1H3	InChI=1S/C7H8O2/c1-4-2-7-3-8-6(7)5(4)9-7/h2,5-6H,3H2,1H3/t5-,6+,7-/m0/s1
