18
gdb 39046	2.50402	2.28253	1.83152	2.0971	74.01	-0.2415	0.0149	0.2563	844.2124	0.151535	-401.923516	-401.917299	-401.916355	-401.953667	26.532	
C	-0.040204828	 1.5468885383	 0.0470771235	-0.259721
C	 1.510906961	 1.5078387435	-0.0176592752	 0.091151
O	 2.1309270962	 1.668395862	 1.266525327	-0.231651
C	 1.5507436821	 1.0592018085	 2.3375713291	 0.099301
N	 0.8042004942	 0.0407796858	 2.3925620639	-0.244285
C	 0.5454200815	-0.7460450985	 1.1987138372	-0.008729
C	 1.8437086902	-1.0638306774	 0.3858325246	-0.240919
C	 1.443040926	 0.046168805	-0.5932844094	-0.036559
C	-0.0274042169	 0.0169377485	-0.0701866321	-0.029829
H	-0.4838029095	 2.0066547099	 0.9336466743	 0.117324
H	-0.4611932261	 2.0165595282	-0.8466313349	 0.105826
H	 2.0081120487	 2.2451726966	-0.6479551727	 0.093305
H	 1.8345687719	 1.581690724	 3.2500834665	 0.120419
H	-0.0475211471	-1.613620597	 1.4922483072	 0.080737
H	 2.7898454881	-0.9719024014	 0.9244954707	 0.110673
H	 1.7963928912	-2.0477068653	-0.0903196997	 0.102047
H	 1.7084714295	-0.0224909726	-1.6495774389	 0.065314
H	-0.835121133	-0.5055225983	-0.5834258811	 0.065595
215.8785	285.7903	323.1384	400.1737	490.911	501.1784	587.1953	671.7592	744.3497	764.5212	811.2749	829.7439	853.7023	892.2031	924.7617	968.1598	971.8513	974.8529	989.6868	1033.8495	1055.0785	1077.0968	1119.0796	1124.8832	1143.2426	1196.488	1202.7481	1224.5309	1259.4702	1268.1802	1293.8837	1297.9291	1316.6658	1352.6171	1378.0561	1414.7949	1475.4774	1481.7152	1718.1244	3053.8029	3058.2134	3083.8605	3089.9484	3106.3577	3109.7815	3112.035	3116.7333	3150.3257
C1C2OC=NC3CC2C13	C1[C@H]2OC=N[C@@H]3C[C@H]2[C@H]13	
InChI=1S/C7H9NO/c1-5-4-2-7(5)9-3-8-6(1)4/h3-7H,1-2H2	InChI=1S/C7H9NO/c1-5-4-2-7(5)9-3-8-6(1)4/h3-7H,1-2H2/t4-,5-,6+,7+/m0/s1
