13
gdb 31394	3.05928	1.37731	0.95536	4.9192	61.85	-0.2797	-0.0646	0.2151	1121.7258	0.089241	-489.922768	-489.915072	-489.914128	-489.956061	26.982	
O	 0.1870334416	 1.362296867	-0.080026211	-0.412963
C	 0.0562272994	-0.0250001411	-0.1073014397	-0.125168
C	-1.382465768	-0.4553660184	-0.032492725	 0.39748
N	-2.3275485896	 0.3908997592	 0.0457477251	-0.368943
C	-3.6676976017	-0.0745240762	 0.1117114971	 0.414585
O	-4.5934302254	 0.6826493881	 0.1786433017	-0.303304
N	-3.8636039339	-1.4879869374	 0.0948621234	-0.28306
C	-2.8417336189	-2.2277510764	 0.0143364043	 0.129707
O	-1.5427405461	-1.8074588679	-0.0577448889	-0.194902
H	-0.7095806247	 1.726188472	-0.0176690814	 0.307737
H	 0.4870192705	-0.4528887617	-1.0271178671	 0.135323
H	 0.591746227	-0.4972738365	 0.7322771188	 0.135307
H	-2.8931401702	-3.3127563508	-0.0060771372	 0.168201
54.5492	95.7055	164.6881	192.8869	327.15	425.4794	428.7147	532.4591	564.1464	588.5511	626.3476	777.9726	832.2211	898.239	961.692	980.0219	1030.6856	1033.514	1129.2936	1194.973	1246.4694	1274.5134	1332.0455	1403.9202	1469.9933	1492.6343	1639.4402	1749.4607	1848.7676	2981.6444	2998.0643	3190.5818	3705.2998
OCC1=NC(=O)N=CO1	OCc1nc(=O)nco1	
InChI=1S/C4H4N2O3/c7-1-3-6-4(8)5-2-9-3/h2,7H,1H2	InChI=1S/C4H4N2O3/c7-1-3-6-4(8)5-2-9-3/h2,7H,1H2
