19
gdb 50715	3.06195	1.19022	0.90164	2.8112	78.02	-0.244	-0.0258	0.2182	1272.9397	0.15931	-423.030789	-423.022212	-423.021268	-423.064772	31.527	
O	-0.897484746	 1.1834591594	-0.884696719	-0.246073
C	-0.0620130259	 1.1361916763	-0.0181805376	 0.150666
C	 1.2172617538	 1.9511222181	 0.0105475978	-0.097131
C	 1.312732715	 2.9176292474	-1.1729149985	-0.092292
O	 2.6553788851	 3.2529309572	-1.4605968708	-0.236845
C	 3.1969887509	 4.3195184297	-0.7165690172	-0.133249
C	 3.3303620689	 4.1465051468	 0.7766764606	-0.051335
C	 2.5903299856	 3.4463522471	 1.6366057805	-0.070165
C	 1.3615374688	 2.6079966273	 1.3951876536	-0.271034
H	-0.1884574703	 0.4561697127	 0.8573907012	 0.078325
H	 2.0409127797	 1.2287079723	-0.1024134287	 0.113694
H	 0.9122426746	 2.431566936	-2.0657703374	 0.127072
H	 0.7079798936	 3.8201893467	-0.9909225268	 0.093051
H	 4.1933604274	 4.4843405923	-1.1410514024	 0.116726
H	 2.6213531157	 5.2457078846	-0.9083114019	 0.101601
H	 4.141551692	 4.7406586448	 1.1960652798	 0.092043
H	 2.8637417761	 3.5217987445	 2.6877094119	 0.09203
H	 0.477233418	 3.2392772167	 1.581245657	 0.123493
H	 1.3172252268	 1.8240765799	 2.1621566878	 0.109423
65.9909	75.6851	120.4388	212.1496	271.9567	340.3952	378.9689	401.8282	418.6197	496.0488	666.308	687.7189	772.1575	816.6262	857.0168	902.382	908.3959	959.5077	1002.0629	1023.4579	1037.619	1059.8772	1115.8318	1148.8843	1179.5837	1220.3404	1255.6352	1287.3249	1296.3659	1323.8721	1339.6282	1373.2319	1403.58	1419.7028	1426.6459	1435.3425	1474.5652	1479.1354	1498.4866	1738.3529	1827.236	2852.5831	2921.5114	2978.9299	2983.5257	3001.275	3036.9121	3062.2429	3101.7404	3123.3597	3147.7592
O=CC1COCC=CC1	O=C[C@H]1COCC=CC1	
InChI=1S/C7H10O2/c8-5-7-3-1-2-4-9-6-7/h1-2,5,7H,3-4,6H2	InChI=1S/C7H10O2/c8-5-7-3-1-2-4-9-6-7/h1-2,5,7H,3-4,6H2/t7-/m0/s1
