18
gdb 64233	3.20713	0.98184	0.91103	6.39	72.79	-0.2644	0.032	0.2964	1326.2737	0.145539	-439.079649	-439.070204	-439.06926	-439.114309	34.162	
C	-0.1481578706	 1.5695454517	-0.1087781478	-0.459735
C	-0.0249636289	 0.0539905485	-0.0332726214	 0.301851
O	-1.2630143249	-0.5852062196	-0.2392982577	-0.46765
C	 1.2061346052	-0.521251405	-0.7891347235	-0.113605
O	 1.9030663276	-0.7311606469	 0.4586619513	-0.288012
C	 0.6930162993	-0.5328514775	 1.2095411846	 0.134103
C	 0.8988668702	 0.3169824518	 2.4634225405	-0.377539
C	 1.6664801388	-0.385435958	 3.4898208872	 0.270837
N	 2.2655629706	-0.9445261253	 4.3040657248	-0.300459
H	 0.8108102178	 2.0611992597	 0.0766565456	 0.136817
H	-0.4753594125	 1.8677709277	-1.1124854161	 0.118233
H	-0.8826776595	 1.9411560795	 0.6122343158	 0.130705
H	-1.7274072435	-0.1397641518	-0.9557346447	 0.283603
H	 0.980130856	-1.464725149	-1.3009361529	 0.10863
H	 1.7577578943	 0.1488461131	-1.4573972427	 0.104759
H	 0.2310234466	-1.4908318389	 1.4834626572	 0.105376
H	 1.4186776189	 1.2457185664	 2.2096494788	 0.153027
H	-0.0798739152	 0.5830690137	 2.8802743008	 0.159058
59.6269	89.2383	115.1618	218.2917	246.1152	267.2195	273.6615	354.3124	388.5191	392.1638	413.9433	506.6893	568.1692	653.146	821.2764	856.7372	904.4087	940.2958	961.2778	979.3794	1014.7373	1044.5447	1093.6458	1137.045	1155.5364	1189.9788	1212.6981	1237.0323	1290.714	1310.622	1341.9048	1390.6942	1404.9386	1411.5266	1449.4335	1492.516	1496.0445	1516.5582	2366.1219	3017.6417	3024.5197	3028.4927	3046.3002	3079.2034	3092.8479	3097.4627	3120.193	3811.5965
CC1(O)COC1CC#N	C[C@@]1(O)CO[C@H]1CC#N	
InChI=1S/C6H9NO2/c1-6(8)4-9-5(6)2-3-7/h5,8H,2,4H2,1H3	InChI=1S/C6H9NO2/c1-6(8)4-9-5(6)2-3-7/h5,8H,2,4H2,1H3/t5-,6+/m0/s1
