20
gdb 71158	2.56163	1.8451	1.4483	1.8827	82.2	-0.2283	0.0783	0.3066	995.5509	0.171248	-365.931129	-365.923422	-365.922477	-365.962729	31.542	
C	 0.0302124548	 1.5869322641	 0.0746460012	-0.519684
C	 0.0578812532	 0.0835636918	 0.083435647	 0.188416
C	-1.2005443203	-0.7906924176	-0.1053263491	-0.178938
N	-0.5536470481	-1.8951316173	 0.6800316972	-0.159326
C	 0.9002723953	-1.8408692956	 0.2751867223	-0.14474
C	 0.3704881113	-0.9024541177	 1.2917811107	-0.096961
C	 1.0890482323	-0.7310820014	-0.7284868689	 0.407124
C	 1.340189265	-0.7691733743	-2.2022667352	-0.341831
C	 2.4054185783	-0.2504904147	-1.2483808117	-0.356011
H	 1.0008471921	 2.0095751973	 0.355103474	 0.123805
H	-0.2243728795	 1.9672264245	-0.9221885967	 0.121839
H	-0.7186166678	 1.9720877932	 0.7748695496	 0.121795
H	-2.0660985547	-0.4328345028	 0.4598639678	 0.099829
H	-1.4988434641	-1.0507615088	-1.1279090637	 0.095386
H	 1.4713255882	-2.7514138362	 0.4043036882	 0.094374
H	 0.5364145027	-0.7837568569	 2.354943037	 0.0941
H	 1.5027989993	-1.7311449058	-2.6779258326	 0.114902
H	 0.8329222937	-0.0433931341	-2.8312184353	 0.110344
H	 2.6069362528	 0.8163118245	-1.2489722071	 0.111929
H	 3.2839414954	-0.8654474321	-1.0792934247	 0.11365
162.7743	191.2958	222.5871	227.4287	301.3782	342.4661	452.1389	518.4289	599.4838	624.0457	749.0069	764.9518	781.2242	793.9856	839.6091	880.0826	912.3403	928.3814	954.1108	959.3345	978.8744	993.0075	1023.4784	1029.6556	1050.2311	1077.9695	1134.5081	1145.3867	1170.556	1175.3918	1183.9787	1202.3293	1216.5946	1274.1555	1304.9212	1352.6608	1406.1215	1414.4661	1461.33	1489.2183	1494.8084	1503.0317	1511.3905	3023.0583	3030.4768	3086.3094	3093.5731	3096.6427	3119.0417	3122.4943	3189.001	3195.6669	3203.7422	3210.1478
CC12CN3C(C13)C21CC1	C[C@]12CN3[C@H]([C@@H]13)C12CC1	
InChI=1S/C8H11N/c1-7-4-9-5(7)6(9)8(7)2-3-8/h5-6H,2-4H2,1H3	InChI=1S/C8H11N/c1-7-4-9-5(7)6(9)8(7)2-3-8/h5-6H,2-4H2,1H3/t5-,6+,7-,9?/m0/s1
