16
gdb 19233	3.0016	2.11405	1.58223	3.912	67.9	-0.256	0.0077	0.2637	845.1259	0.131158	-342.751413	-342.744038	-342.743094	-342.782957	27.496	
C	-0.1186266568	 1.6067614894	-0.0984059122	-0.41817
C	 0.056998528	 0.0965013721	-0.0467139669	-0.007517
C	 0.7547189007	-0.6283099325	-1.1982181763	-0.026555
C	 2.1983319448	-0.3381123081	-1.2588442813	-0.247819
N	 1.7393000377	-1.3418985482	-0.2763057537	-0.132669
C	 1.1463719565	-0.5609934568	 0.8771177432	-0.140851
C	 2.0696857356	 0.3202634094	 1.5813005258	 0.304915
N	 2.7942201717	 1.0402586533	 2.1236535219	-0.334391
H	 0.824786801	 2.1236569068	-0.2921492103	 0.135726
H	-0.8234731503	 1.8776441888	-0.8913502316	 0.124369
H	-0.5160353494	 1.9862238577	 0.8483107323	 0.132111
H	-0.90215562	-0.3797359317	 0.1721721632	 0.099382
H	 0.2411095817	-1.1684523053	-1.9866660628	 0.104919
H	 2.7610635695	-0.7917057097	-2.0681850633	 0.134209
H	 2.6008914345	 0.6069620243	-0.9044839216	 0.138881
H	 0.7167607949	-1.2638017294	 1.5937392837	 0.13346
127.8164	133.9885	190.7332	222.0219	306.7258	398.8146	477.57	541.1942	608.1389	704.8341	749.7052	776.4937	815.4183	906.8874	947.7059	990.6702	1013.5307	1054.4824	1082.0628	1100.3791	1119.8602	1145.4835	1155.3958	1213.6006	1232.5705	1281.5489	1345.417	1369.1978	1374.8156	1416.2587	1488.7425	1492.6474	1504.1726	2348.4646	3039.7862	3071.8263	3094.0648	3106.1629	3119.6631	3123.4136	3168.6281	3210.8831
CC1C2CN2C1C#N	C[C@H]1[C@H]2CN2[C@H]1C#N	
InChI=1S/C6H8N2/c1-4-5(2-7)8-3-6(4)8/h4-6H,3H2,1H3	InChI=1S/C6H8N2/c1-4-5(2-7)8-3-6(4)8/h4-6H,3H2,1H3/t4-,5+,6-,8?/m1/s1
