16
gdb 29538	3.05952	1.60115	1.06816	2.7604	71.71	-0.1781	0.0453	0.2234	1068.7394	0.126209	-437.896734	-437.888861	-437.887917	-437.928982	29.711	
O	 0.0017992944	 1.3777830281	-0.0616487635	-0.455141
C	 0.0332678983	 0.0128158728	-0.0091509942	 0.158969
C	 0.1600085675	-0.8220504652	-1.1067036673	-0.157195
N	 0.124558529	-2.1391006775	-0.6704062801	-0.382535
C	 0.0265826765	-2.1401490568	 0.6951664865	 0.21109
C	-0.0530534551	-0.8452847658	 1.1130630322	 0.248699
O	-0.2852259214	-0.6876278829	 2.4563742866	-0.309337
C	-0.1113128531	-2.0217866605	 3.0044643291	-0.085825
C	-0.2379822383	-3.0648412738	 1.840696615	-0.363383
H	-0.095462082	 1.7063711969	 0.837018019	 0.302993
H	 0.2968234314	-0.5738086566	-2.1454855414	 0.11972
H	 0.3088845492	-2.9325246551	-1.2567901199	 0.25858
H	 0.8912573005	-2.0780471269	 3.4454368487	 0.112038
H	-0.8552590777	-2.1566724455	 3.7920152882	 0.116309
H	-1.2379215818	-3.5201551871	 1.8019872565	 0.113838
H	 0.4851577227	-3.8765294141	 1.9757739346	 0.11118
134.2762	148.1482	201.2559	240.3612	256.398	294.4353	404.5935	514.5361	605.1713	610.382	621.825	647.8971	697.276	756.7058	808.4892	852.1348	928.8978	980.5321	1060.4539	1074.283	1112.963	1150.8051	1189.7062	1230.2909	1235.7785	1282.7238	1329.9964	1350.7185	1395.2596	1479.8442	1494.0216	1514.5881	1532.4986	1593.0876	1667.974	2995.399	3027.3872	3054.9166	3112.2801	3276.0897	3694.4992	3840.4742
OC1=CNC2=C1OCC2	Oc1c[nH]c2c1OCC2	
InChI=1S/C6H7NO2/c8-5-3-7-4-1-2-9-6(4)5/h3,7-8H,1-2H2	InChI=1S/C6H7NO2/c8-5-3-7-4-1-2-9-6(4)5/h3,7-8H,1-2H2
