17
gdb 95928	2.3309	1.45269	1.26372	2.0596	68.56	-0.2667	0.0161	0.2829	1063.9787	0.137122	-455.144945	-455.13637	-455.135425	-455.178271	32.072	
N	-0.1609698337	 1.4928308887	-0.0039727576	-0.543652
C	-0.045898898	 0.0332213958	-0.0206740276	 0.063172
C	 0.5437268839	-0.4639596146	 1.3338588968	-0.103505
O	-0.569029504	-0.7524836772	 2.1502789791	-0.240868
C	-1.488582871	-1.4199007908	 1.2989011664	-0.118786
C	-1.5123353393	-0.5965028709	-0.0021835353	 0.096939
O	-2.5042093162	 0.3946490955	-0.0200565501	-0.424524
C	 0.7386847844	-0.4619784354	-1.1615729331	 0.235595
N	 1.3666057619	-0.8220076331	-2.0641183251	-0.343012
H	 0.7603425368	 1.9162262082	 0.0487310347	 0.248277
H	-0.5983978079	 1.8172542081	-0.8616175885	 0.255649
H	 1.1602403972	-1.3608058799	 1.1707696655	 0.113574
H	 1.1458075898	 0.3049561112	 1.8230251965	 0.123167
H	-1.1541927466	-2.4512543382	 1.0988935741	 0.099164
H	-2.4669943135	-1.4412171232	 1.7811694809	 0.128933
H	-1.6834939253	-1.2239172513	-0.8791393528	 0.113612
H	-2.2205409285	 1.0835405871	 0.5971447661	 0.296265
63.2701	151.3826	176.5278	198.7362	241.3335	331.8147	393.284	404.6572	464.8493	519.0833	530.6127	573.3263	613.9595	714.0484	805.7461	868.2837	885.8361	944.679	973.5495	991.8118	1036.9157	1097.7806	1120.3743	1143.2309	1184.7846	1233.9997	1264.4992	1295.9289	1306.2716	1332.6834	1356.1465	1399.4259	1451.7246	1490.5779	1504.9416	1647.9093	2339.4476	2974.0294	2995.1195	3100.6441	3108.7766	3126.0319	3499.684	3582.9312	3749.0883
NC1(COCC1O)C#N	N[C@]1(COC[C@H]1O)C#N	
InChI=1S/C5H8N2O2/c6-2-5(7)3-9-1-4(5)8/h4,8H,1,3,7H2	InChI=1S/C5H8N2O2/c6-2-5(7)3-9-1-4(5)8/h4,8H,1,3,7H2/t4-,5+/m1/s1
