14
gdb 46240	2.84119	1.36198	1.07842	7.8846	68.45	-0.2623	-0.0083	0.254	1088.9978	0.10124	-432.856946	-432.848885	-432.847941	-432.890137	28.787	
O	-0.0887261832	 0.0029117403	 0.1481537051	-0.341284
C	-0.0424053846	 1.1966047924	 0.0986552977	 0.421005
N	-0.9997750057	 2.1913135578	 0.0793773357	-0.344987
C	-0.0787512272	 3.3295160788	 0.0261154272	-0.238605
C	 1.0517017326	 2.277854706	 0.0163652505	 0.177629
N	 2.3176949756	 2.2576733446	 0.7087768573	-0.337845
C	 2.3203654205	 2.301652236	-0.7680308611	-0.280066
C	 2.8263449528	 1.1414783813	-1.4632661339	 0.358244
N	 3.24384108	 0.2474179739	-2.064245695	-0.324701
H	-2.0068644379	 2.1483160243	 0.0834934236	 0.264603
H	-0.1626614341	 3.9436851503	-0.8761820566	 0.128603
H	-0.0993721077	 3.968473744	 0.9162182725	 0.125587
H	 2.5545820535	 3.1720013103	 1.0877345058	 0.252841
H	 2.5642379952	 3.2423338001	-1.2563655789	 0.138977
81.5631	94.5176	153.6581	216.4008	253.8323	304.754	424.5351	479.4377	514.9313	566.2374	679.3194	746.0378	779.1824	827.9508	904.1654	920.0644	958.7951	1004.1743	1047.2477	1082.9786	1143.2572	1156.2978	1189.6781	1218.6394	1288.0665	1347.2955	1383.3796	1473.7284	1523.2876	1917.0187	2367.1299	3032.7799	3081.7048	3139.8089	3501.1736	3636.2943
O=C1NCC11NC1C#N	O=C1NC[C@]21N[C@H]2C#N	
InChI=1S/C5H5N3O/c6-1-3-5(8-3)2-7-4(5)9/h3,8H,2H2,(H,7,9)	InChI=1S/C5H5N3O/c6-1-3-5(8-3)2-7-4(5)9/h3,8H,2H2,(H,7,9)/t3-,5-/m0/s1
