20
gdb 16999	3.58341	2.12093	1.87327	0.4255	77.46	-0.2201	0.084	0.3041	828.1504	0.180172	-311.848659	-311.842053	-311.841109	-311.878829	27.862	
C	 0.0901135534	 1.3420327234	-0.1525771711	-0.373214
C	 1.410159312	 0.6310577701	-0.0259512103	 0.290369
C	 1.6766122736	 0.2418773586	 1.4412413576	-0.289727
C	 0.331723512	-0.5664142377	 1.4496203871	-0.289727
C	 0.0996649346	-0.1565602374	-0.017786302	 0.290369
C	 0.0420329114	-1.0154566816	-1.2636902275	-0.294208
C	 1.1104069906	-0.3768920193	-2.2059576327	-0.215743
C	 2.1842227022	 0.272017602	-1.2770377845	-0.294208
H	-0.2680815004	 1.9466189423	 0.6766159744	 0.10262
H	-0.1592764188	 1.7468833449	-1.1272985225	 0.109865
H	 2.5503373479	-0.4048620312	 1.5556505135	 0.098529
H	 1.7659655381	 1.0681624011	 2.1545133663	 0.092419
H	 0.4938749201	-1.6408166369	 1.5684620564	 0.098529
H	-0.4333053267	-0.2536220688	 2.1682160315	 0.092419
H	 0.331817673	-2.0416129851	-1.0054373718	 0.095278
H	-0.939702518	-1.0728641162	-1.7474243831	 0.094664
H	 1.5454497217	-1.1078741141	-2.8934969377	 0.09686
H	 0.6441423356	 0.3924409276	-2.8300934008	 0.104967
H	 2.691153434	 1.1093116388	-1.7700476291	 0.094664
H	 2.9567303937	-0.4640181405	-1.0217932036	 0.095278
193.9539	219.799	311.961	318.9341	425.5772	520.3777	583.8065	620.1015	716.3551	740.2946	766.7437	815.2899	857.0708	876.155	909.8939	916.5762	928.4731	964.3804	974.5021	990.5246	1042.8078	1055.5673	1069.5948	1113.6099	1178.3308	1206.6003	1227.2082	1230.6061	1242.1847	1253.7956	1265.337	1289.7093	1329.1144	1338.2938	1354.1805	1378.0309	1474.5385	1476.3234	1492.9121	1493.0052	1497.9491	1515.2903	3024.1189	3025.8844	3036.3748	3044.3185	3046.2887	3061.1678	3064.7517	3087.2268	3094.9732	3106.586	3114.6824	3204.1018
C1C23CCC12CCC3	C1[C@@]23CC[C@@]12CCC3	
InChI=1S/C8H12/c1-2-7-4-5-8(7,3-1)6-7/h1-6H2	InChI=1S/C8H12/c1-2-7-4-5-8(7,3-1)6-7/h1-6H2/t7-,8+
