22
gdb 63628	2.92318	1.11991	1.05998	2.6286	83.41	-0.2248	0.0674	0.2923	1292.9199	0.192555	-404.318019	-404.308358	-404.307414	-404.35195	37.75	
C	-0.377087903	 1.5538296896	 0.1120172223	-0.455311
C	-0.0684899686	 0.0699807931	 0.0983099052	 0.338501
C	-1.1379656542	-0.7826488927	-0.5584500232	-0.455263
N	 1.341277937	-0.2973340695	-0.1746797982	-0.396048
C	 0.7643790623	-0.5776285593	 1.1558856557	-0.156895
C	 1.4481561728	 0.1387865869	 2.2918604353	 0.458671
O	 2.1875933891	 1.2579697001	 1.8954847671	-0.471902
C	 0.7929561067	 0.236908714	 3.6345211007	-0.311848
C	 1.9910534761	-0.6764764004	 3.4451420657	-0.326684
H	 0.4113857025	 2.117452211	 0.6093538313	 0.148894
H	-0.4906722118	 1.9270621275	-0.912318345	 0.110126
H	-1.3192416371	 1.7383120059	 0.6400174839	 0.112836
H	-1.2727540784	-0.4935716412	-1.6075127658	 0.122103
H	-0.8800330121	-1.8467284105	-0.5293700989	 0.108869
H	-2.1034242657	-0.6571245132	-0.056498881	 0.125694
H	 1.4040841033	-1.1401011633	-0.7391441107	 0.229321
H	 0.5104762046	-1.6118645562	 1.3834060698	 0.077085
H	 2.5029545282	 1.0405925496	 1.0037167339	 0.288055
H	 0.9499531038	 1.1607403937	 4.1797056732	 0.124132
H	-0.1859557713	-0.2108090115	 3.7712088007	 0.108203
H	 1.8315174581	-1.750191349	 3.4583977973	 0.102934
H	 2.9364650175	-0.3468702645	 3.8600121907	 0.118527
71.9681	151.3851	171.1619	198.0915	230.3524	291.2626	306.1815	331.4107	373.3752	412.9029	428.4915	504.1134	540.7952	562.704	707.366	763.1475	776.9574	833.0875	894.4852	908.4625	941.7479	957.7521	965.7297	982.7112	991.947	1023.8107	1050.3015	1073.1823	1081.3969	1098.4979	1153.2279	1181.7985	1191.1485	1231.6046	1305.3837	1327.3703	1345.0618	1408.3151	1414.2214	1424.744	1451.0869	1460.3531	1481.7578	1487.9864	1506.8885	1510.9772	1518.7996	3021.9254	3032.812	3085.9065	3090.3934	3096.992	3114.2738	3126.1288	3132.1744	3157.6256	3214.4458	3228.8101	3505.4864	3689.5619
CC1(C)NC1C1(O)CC1	CC1(C)N[C@H]1C1(O)CC1	
InChI=1S/C7H13NO/c1-6(2)5(8-6)7(9)3-4-7/h5,8-9H,3-4H2,1-2H3	InChI=1S/C7H13NO/c1-6(2)5(8-6)7(9)3-4-7/h5,8-9H,3-4H2,1-2H3/t5-/m1/s1
