19
gdb 82365	2.49042	1.55138	1.21985	3.5542	74.34	-0.2438	-0.0192	0.2246	1077.9294	0.158882	-423.032555	-423.024111	-423.023167	-423.066277	31.62	
C	 0.0412443997	 1.5801114029	-0.0404251945	-0.407584
C	 0.0715627935	 0.0503601898	 0.0094446599	-0.026419
C	 0.7048003643	-0.6076691856	-1.2019563724	 0.046652
O	 2.1413250335	-0.5733018871	-1.1847809392	-0.261883
C	 1.4723869209	-1.784614742	-0.7909039754	 0.052587
C	 1.3727767562	-1.9490332258	 0.7114661147	-0.281522
C	 0.8584650503	-0.5764097434	 1.2210684826	-0.102248
C	 2.001859008	 0.3117721608	 1.6882193358	 0.158485
O	 1.9013194027	 1.1037816203	 2.591337399	-0.266303
H	 1.0371661273	 1.9885318855	-0.2350092155	 0.136757
H	-0.6257726846	 1.924627975	-0.8368911549	 0.111773
H	-0.3107814962	 1.9988117862	 0.9063318451	 0.13609
H	-0.961358148	-0.3191832412	 0.0703604308	 0.086794
H	 0.2495363741	-0.5085929701	-2.1846775655	 0.09675
H	 1.6412005352	-2.6400700898	-1.4396044725	 0.098153
H	 0.6562453016	-2.7448742704	 0.943501121	 0.113304
H	 2.3287470389	-2.2326418411	 1.1660358593	 0.116179
H	 0.187620381	-0.6762526411	 2.0776116081	 0.097105
H	 2.9552679014	 0.185332197	 1.1334566936	 0.09533
36.5665	106.9069	193.0866	239.4994	254.6312	316.5537	355.6547	417.3049	435.0174	541.6546	640.7216	738.0758	803.6768	837.0548	870.1585	884.6473	926.4826	954.5895	996.8083	999.1248	1026.6784	1047.627	1083.9742	1108.6436	1144.3974	1148.9095	1214.9481	1225.0151	1262.7907	1289.974	1316.0047	1335.0421	1338.8294	1365.9633	1414.1475	1419.202	1445.7499	1482.3441	1493.152	1504.2606	1820.7844	2915.251	3012.4166	3040.5259	3041.5643	3077.6454	3088.5085	3110.7494	3120.8136	3141.0851	3156.0093
CC1C2OC2CC1C=O	C[C@H]1[C@H]2O[C@H]2C[C@H]1C=O	
InChI=1S/C7H10O2/c1-4-5(3-8)2-6-7(4)9-6/h3-7H,2H2,1H3	InChI=1S/C7H10O2/c1-4-5(3-8)2-6-7(4)9-6/h3-7H,2H2,1H3/t4-,5+,6+,7-/m1/s1
