19
gdb 111069	2.39533	1.34164	1.01609	3.3603	71.8	-0.2411	0.0625	0.3036	1209.2044	0.15798	-460.076805	-460.067756	-460.066812	-460.111154	33.595	
O	 0.3272796879	 0.3401509642	 1.0320354643	-0.416414
C	-0.1481176901	 0.3526046832	-0.3100917405	-0.13928
C	-1.4248570029	-0.462947946	-0.3200451399	-0.002281
C	-1.9744412967	-1.2055822252	-1.5707637037	 0.011358
C	-0.8487900637	-2.2593934936	-1.4798072164	-0.270072
C	-1.415487383	-1.9966480271	-0.0595663235	 0.397106
C	-1.224694307	-2.7732847099	 1.2076000759	-0.195578
O	-1.4849052646	-4.1505742499	 1.0073047625	-0.416099
O	-2.7883715478	-2.0441411202	-0.6599638054	-0.359199
H	 1.1074056218	 0.9005212758	 1.0827861831	 0.29045
H	-0.3714475976	 1.3777805597	-0.6452756907	 0.092807
H	 0.6043392511	-0.0568218733	-0.9983490153	 0.090081
H	-2.2168586968	 0.0348750509	 0.2446934532	 0.091132
H	-2.4763821869	-0.798771391	-2.4488805431	 0.094617
H	-1.1026905312	-3.2343727511	-1.8946091682	 0.11202
H	 0.1792467767	-1.9667082155	-1.6991317614	 0.097896
H	-0.1871311302	-2.6776856182	 1.5418112363	 0.126705
H	-1.8690035763	-2.3415993945	 1.9895755092	 0.10085
H	-2.3462893327	-4.2061926384	 0.5770893938	 0.293902
58.7221	84.4526	124.0698	187.9179	256.5306	300.3707	334.4491	363.1269	403.6132	476.6744	576.5119	615.1226	668.6577	713.6412	840.2875	857.9913	877.9856	933.6833	977.7876	1010.308	1027.8048	1062.7454	1072.2028	1091.9549	1104.003	1125.3536	1160.2632	1195.1312	1213.7584	1231.0202	1239.6556	1258.1187	1267.7284	1313.6821	1372.3846	1390.74	1432.8735	1466.5829	1490.1608	1497.1771	1528.1566	2977.9606	2987.4349	3014.2244	3081.4405	3090.0774	3092.39	3117.2419	3158.2727	3795.9341	3826.6878
OCC1C2CC1(CO)O2	OC[C@H]1[C@H]2C[C@]1(CO)O2	
InChI=1S/C6H10O3/c7-2-4-5-1-6(4,3-8)9-5/h4-5,7-8H,1-3H2	InChI=1S/C6H10O3/c7-2-4-5-1-6(4,3-8)9-5/h4-5,7-8H,1-3H2/t4-,5+,6+/m0/s1
