19
gdb 90476	3.06323	1.07193	1.00844	3.8543	76.15	-0.2445	-0.0215	0.2229	1246.981	0.159555	-423.029517	-423.021043	-423.020098	-423.062942	32.066	
O	 0.5619011819	 0.7002527765	-0.7583271668	-0.440442
C	-0.033177128	-0.2646259678	 0.089092045	 0.14168
C	 0.5111376509	-0.2470107784	 1.5463051198	-0.2595
C	-0.667795207	-0.5381195965	 2.4615318751	-0.07009
C	-1.9321656921	-0.4644916561	 1.6574753292	-0.070078
C	-1.5771895679	-0.1254079006	 0.2182899441	-0.259494
C	-1.5117712004	-1.8017539493	 2.2734876979	-0.110298
C	-1.0938353269	-2.9967252969	 1.5067941029	 0.150028
O	-1.3715780787	-4.1251352439	 1.8397978753	-0.273569
H	 0.3792295357	 1.5723299061	-0.3911793613	 0.274904
H	 0.2170162289	-1.2139990555	-0.3912777013	 0.099906
H	 1.3583284811	-0.9268287297	 1.6765846304	 0.116558
H	 0.8832180045	 0.7615146927	 1.7674721537	 0.100587
H	-0.6221842089	-0.1663862262	 3.4790907328	 0.100149
H	-2.8399062963	-0.0372701837	 2.0687924326	 0.100151
H	-1.8500854104	 0.9206777065	 0.029312735	 0.100586
H	-2.1075200028	-0.725006904	-0.52742351	 0.11656
H	-2.086086312	-2.0837096067	 3.1506677234	 0.108487
H	-0.4983309017	-2.8181694965	 0.5871299523	 0.073875
87.547	98.7947	163.2673	165.5552	308.1983	362.6138	379.3123	389.4853	466.4681	508.6079	630.2279	659.425	749.175	823.664	848.4207	888.3142	916.1378	951.7723	989.9126	1011.8729	1041.1236	1046.218	1090.5501	1111.5106	1112.718	1120.7259	1177.1906	1183.5569	1231.0421	1291.1622	1292.9353	1308.4874	1339.329	1343.7797	1351.6757	1400.6828	1437.4318	1464.6094	1483.2768	1491.8808	1802.8137	2908.9725	3028.7177	3031.9036	3066.9722	3082.441	3092.5863	3161.2317	3166.3653	3179.0187	3797.0521
OC1CC2C(C1)C2C=O	O[C@H]1C[C@H]2[C@@H](C1)[C@H]2C=O	
InChI=1S/C7H10O2/c8-3-7-5-1-4(9)2-6(5)7/h3-7,9H,1-2H2	InChI=1S/C7H10O2/c8-3-7-5-1-4(9)2-6(5)7/h3-7,9H,1-2H2/t4-,5-,6+,7-
