19
gdb 17842	3.72846	1.56479	1.39381	1.6368	70.67	-0.2304	0.0728	0.3032	975.9575	0.165422	-365.009412	-365.001207	-365.000263	-365.042086	30.852	
C	 0.4855250199	 0.4270637271	-1.4144810773	-0.400903
C	 0.0227394852	 0.0829052502	 0.0033800393	 0.111163
O	 0.1173220319	 1.2126806134	 0.8713391889	-0.431973
C	-1.3867867941	-0.4829633722	-0.01531622	-0.020604
C	-1.7639123874	-1.9024191965	 0.1655430013	-0.04163
C	-0.8630559011	-2.6370597658	 1.1571261239	-0.25476
C	-1.1917907562	-1.4980450813	 2.1552649423	-0.157065
N	-2.15714652	-0.8472956352	 1.1926121294	-0.159346
H	 1.4933686021	 0.8488120441	-1.3878150114	 0.12506
H	 0.4927508641	-0.4629280476	-2.0527947269	 0.117879
H	-0.1823850983	 1.1662083549	-1.8722560606	 0.109633
H	 0.7222671692	-0.6431512634	 0.4279007232	 0.089105
H	-0.6453232479	 1.7779469225	 0.7065429888	 0.283733
H	-2.0405417548	 0.0567768178	-0.7027643667	 0.086734
H	-2.5025299189	-2.3803548886	-0.471626464	 0.091444
H	-1.2829976089	-3.5956496263	 1.4670491762	 0.111691
H	 0.1794339033	-2.7959068981	 0.8645238215	 0.104508
H	-1.7388242015	-1.8370251623	 3.0366309061	 0.107638
H	-0.3809788565	-0.8377090727	 2.4704104459	 0.127692
57.4544	153.3034	197.3265	221.5232	242.447	303.9351	348.7875	436.5867	506.17	557.745	754.114	780.4991	788.2386	800.0974	862.2281	917.2787	963.7775	975.9921	1008.2843	1021.5198	1067.0099	1079.2744	1101.7176	1122.6369	1156.0634	1179.2774	1219.5905	1251.2207	1263.397	1278.5429	1295.0575	1345.3014	1366.7229	1400.1699	1419.4822	1449.3423	1488.5823	1491.5675	1495.875	1516.2509	3029.4626	3051.2111	3064.5652	3073.9544	3090.9624	3101.2009	3108.2806	3122.4534	3129.8862	3150.6214	3804.7835
CC(O)C1C2CCN12	C[C@@H](O)[C@H]1[C@H]2CCN12	
InChI=1S/C6H11NO/c1-4(8)6-5-2-3-7(5)6/h4-6,8H,2-3H2,1H3	InChI=1S/C6H11NO/c1-4(8)6-5-2-3-7(5)6/h4-6,8H,2-3H2,1H3/t4-,5-,6+,7?/m1/s1
