25
gdb 58229	2.31358	1.18328	1.01646	1.5073	88.33	-0.2564	0.0685	0.3249	1368.3351	0.226539	-389.486759	-389.475785	-389.474841	-389.522001	41.859	
C	-1.6292688087	-0.2080298641	-0.6887457728	-0.387818
C	-0.1695172593	-0.0555226265	-0.2373498693	 0.008509
C	 0.1127503186	-0.9420768795	 0.9835420186	-0.393351
C	 0.7915242816	-0.3364605079	-1.4146344868	 0.056047
O	 0.4745139984	 0.4944134379	-2.5351401813	-0.439206
C	 2.2797973559	-0.2425965674	-1.0795140176	 0.382932
C	 2.7544255892	 1.0645085966	-0.4692512942	-0.483617
C	 2.9935906173	-1.5131116058	-0.6749555493	-0.303055
C	 3.2104358699	-0.9307135426	-2.0485244681	-0.311447
H	-1.8343411692	 0.4021478702	-1.5703511043	 0.123608
H	-1.8462896621	-1.251748922	-0.9473395052	 0.109022
H	-2.3176161861	 0.0849043882	 0.1106629285	 0.103238
H	-0.0183319717	 0.9931378052	 0.0623615685	 0.06199
H	 0.0078676668	-2.0033010716	 0.7283016401	 0.111707
H	 1.1192580459	-0.795139851	 1.382671179	 0.120541
H	-0.6026519735	-0.7267339382	 1.7840258777	 0.109054
H	 0.5946795266	-1.3548896531	-1.7759378769	 0.074874
H	 0.6032350751	 1.4101789068	-2.2657647455	 0.275276
H	 2.308454768	 1.250620638	 0.5137118102	 0.120738
H	 3.8410030586	 1.0580392042	-0.3408926312	 0.117251
H	 2.5159654214	 1.920765179	-1.1128198064	 0.10551
H	 3.7969487411	-1.4364506561	 0.0507820019	 0.105735
H	 2.4148160792	-2.4269911847	-0.5935965798	 0.110183
H	 2.7695803432	-1.4385777606	-2.8994402927	 0.117368
H	 4.1645146039	-0.4598374653	-2.2609757433	 0.104912
81.2006	88.2133	166.8388	216.6471	220.4358	231.3049	261.2093	266.4307	283.051	303.9993	331.8584	372.4698	405.8809	452.2583	491.4469	548.5109	753.1311	783.6344	842.7569	872.6064	906.1528	932.0358	940.9501	955.479	963.3747	991.4129	1031.7901	1053.0863	1069.3396	1079.6154	1117.2756	1130.6867	1141.7353	1187.8273	1193.5722	1248.5315	1277.5464	1321.9792	1348.2158	1361.2942	1389.3362	1396.5202	1416.8554	1421.6102	1423.9455	1472.8839	1487.8403	1490.1585	1496.6946	1499.6936	1503.1729	1510.0342	1514.918	2984.1364	3019.2435	3021.9001	3028.0322	3033.3713	3079.6711	3088.3848	3094.1258	3101.1939	3117.6226	3127.0282	3131.9348	3132.2797	3204.1903	3218.7068	3807.8506
CC(C)C(O)C1(C)CC1	CC(C)[C@@H](O)C1(C)CC1	
InChI=1S/C8H16O/c1-6(2)7(9)8(3)4-5-8/h6-7,9H,4-5H2,1-3H3	InChI=1S/C8H16O/c1-6(2)7(9)8(3)4-5-8/h6-7,9H,4-5H2,1-3H3/t7-/m1/s1
