16
gdb 16585	3.31638	1.80268	1.49947	2.7988	65.34	-0.2407	-0.0171	0.2236	888.858	0.129496	-383.723152	-383.715394	-383.71445	-383.755209	28.818	
C	-0.0481745569	 1.5567602991	-0.0341090629	-0.418729
C	 0.0976477477	 0.0477654307	-0.0963258552	-0.019093
C	 0.7033130719	-0.7317097194	-1.2073387019	-0.084172
C	 1.3817404465	-0.7109165333	 0.2172401363	-0.200037
C	 2.5664833043	-0.1037908889	-0.4425740817	 0.367742
O	 3.7389591969	-0.066232181	-0.1738402375	-0.338578
C	 1.8825904092	 0.0208717971	-1.8377139468	 0.032136
O	 2.5896557862	-0.7431003088	-2.7865625882	-0.446719
H	 0.8270903141	 2.083179435	-0.4206493681	 0.132293
H	-0.9190915059	 1.8830234247	-0.6125444538	 0.126688
H	-0.1946034732	 1.8784585608	 1.0017450127	 0.128484
H	-0.7495977287	-0.4716122244	 0.3486712721	 0.105826
H	 0.235816079	-1.5898656067	-1.6714980843	 0.118582
H	 1.4197256141	-1.4678681102	 0.9915533949	 0.112996
H	 1.6553848591	 1.0218825642	-2.2247866862	 0.084688
H	 3.5278214557	-0.6411234988	-2.5812199895	 0.297893
77.8842	170.286	209.9642	212.2321	290.8979	339.1767	383.6567	458.901	563.6537	635.0362	667.4084	767.3223	850.9364	880.5875	904.5534	930.4292	946.7283	1014.1083	1048.2924	1064.7617	1108.6398	1144.4928	1147.4957	1179.6931	1204.8465	1287.2645	1315.3137	1357.5155	1383.5135	1419.0167	1436.5761	1493.7077	1503.4147	1854.3602	3019.5798	3041.3936	3102.0851	3116.4916	3134.3506	3189.6799	3212.5136	3773.3218
CC1C2C1C(=O)C2O	C[C@H]1[C@@H]2[C@H]1C(=O)[C@H]2O	
InChI=1S/C6H8O2/c1-2-3-4(2)6(8)5(3)7/h2-5,7H,1H3	InChI=1S/C6H8O2/c1-2-3-4(2)6(8)5(3)7/h2-5,7H,1H3/t2-,3+,4-,5-/m0/s1
