18
gdb 48899	3.62072	1.40461	1.33233	2.7456	76.28	-0.2328	-0.0286	0.2041	1005.8594	0.149517	-401.902507	-401.895549	-401.894605	-401.934085	27.825	
O	-0.0992556353	 0.0213193578	 0.0966313512	-0.251183
C	 0.0183014574	 1.2225259302	 0.1340781059	 0.027976
C	 1.3144608934	 1.9475216131	 0.04532864	 0.23414
C	 2.6621156731	 1.2891276486	-0.2904567465	-0.207888
N	 3.1138471006	 2.6384182135	-0.7748830157	-0.148863
C	 2.7715120306	 3.646933604	 0.3499325314	 0.002355
C	 1.8508908644	 4.3710589042	-0.6538058564	-0.24032
C	 1.6712071145	 2.944885068	-1.1622759334	-0.046701
C	 1.7488553706	 2.866471467	 1.2122916501	-0.280175
H	-0.8775322707	 1.88295719	 0.2191225874	 0.067189
H	 3.2436451431	 0.8437208521	 0.5216807918	 0.106613
H	 2.6206752516	 0.6032945993	-1.1397451683	 0.122286
H	 3.6103008595	 4.1340745654	 0.8441451641	 0.08283
H	 0.997582919	 4.9328938571	-0.2687667997	 0.100787
H	 2.4105489306	 4.961274807	-1.3820891089	 0.122501
H	 1.3330392192	 2.6712871963	-2.1622255201	 0.090243
H	 0.9587353966	 3.5107327563	 1.6075311701	 0.105635
H	 2.1814713018	 2.29461091	 2.036574357	 0.112574
77.3863	160.9602	266.9559	360.3582	431.0301	462.7543	496.5289	648.5459	684.2663	757.2145	774.2255	830.67	864.0354	890.5874	909.7945	948.3867	952.0179	995.2312	1007.0407	1017.5157	1040.0248	1052.0566	1098.84	1121.1615	1131.6402	1171.266	1187.2902	1226.5994	1229.8759	1252.9679	1263.6529	1280.5019	1313.9894	1339.7768	1424.1427	1475.6709	1498.0362	1519.0619	1811.5255	2845.49	3058.1412	3063.0246	3072.262	3111.2894	3114.5414	3122.0768	3133.105	3136.7557
O=CC12CN3C(CC13)C2	O=C[C@@]12CN3[C@@H](C[C@H]13)C2	
InChI=1S/C7H9NO/c9-4-7-2-5-1-6(7)8(5)3-7/h4-6H,1-3H2	InChI=1S/C7H9NO/c9-4-7-2-5-1-6(7)8(5)3-7/h4-6H,1-3H2/t5-,6+,7+/m0/s1
