20
gdb 65184	3.06375	1.10872	1.03542	3.7358	80.84	-0.2476	0.008	0.2556	1252.8054	0.169881	-403.129962	-403.120819	-403.119875	-403.164108	34.135	
C	-0.0163869142	 0.9816087214	-1.0164233843	-0.498442
C	 0.0241506477	-0.2707033179	-0.1590536306	 0.373635
C	 1.2876990056	-1.1099366366	-0.181297405	-0.299597
C	 0.9662318184	-0.2696884205	 1.0265104666	-0.30769
C	-1.2590298898	-1.0329887741	 0.0371208225	-0.087362
C	-2.6209713243	-0.4414333309	-0.2273088828	-0.25905
N	-2.084225195	-1.4744939646	-1.0779979121	-0.063237
C	-1.8495341941	-1.3745093393	-2.4321908144	 0.140893
O	-2.5688140671	-0.8092470184	-3.2222627877	-0.302998
H	 0.9934759721	 1.3808230668	-1.1474498552	 0.118935
H	-0.4240357285	 0.7924118221	-2.0146516095	 0.145819
H	-0.621705533	 1.7657876546	-0.5497356511	 0.124658
H	 1.1899561197	-2.1868161693	-0.0927572589	 0.117468
H	 2.0932547438	-0.7898138524	-0.833100204	 0.118079
H	 1.5487787715	 0.6284978873	 1.1995955426	 0.116954
H	 0.6544733371	-0.7761753702	 1.9339616025	 0.116016
H	-1.1985290982	-1.7744891194	 0.8336071574	 0.096418
H	-3.4612297304	-0.724651942	 0.401175665	 0.126264
H	-2.6777630978	 0.5577654195	-0.6489087391	 0.1379
H	-0.9501939834	-1.9456215262	-2.732265942	 0.085338
54.0586	96.541	185.4093	206.2845	224.6043	279.5751	311.4944	334.4244	354.7619	441.0157	507.8215	644.6512	706.5369	782.5194	820.2761	864.8147	893.4367	944.4113	957.2931	961.9447	1006.3105	1040.6735	1046.5552	1079.0633	1081.9851	1095.4741	1117.1638	1126.4256	1145.8758	1173.9348	1190.3687	1291.2402	1335.9823	1398.3854	1413.4878	1423.5685	1436.3601	1470.24	1493.0019	1499.6403	1509.7335	1514.9046	1789.5022	2951.9301	3035.8048	3100.1781	3104.9792	3108.8293	3115.9409	3129.6367	3133.9571	3205.3397	3208.2743	3222.4758
CC1(CC1)C1CN1C=O	CC1(CC1)[C@H]1CN1C=O	
InChI=1S/C7H11NO/c1-7(2-3-7)6-4-8(6)5-9/h5-6H,2-4H2,1H3	InChI=1S/C7H11NO/c1-7(2-3-7)6-4-8(6)5-9/h5-6H,2-4H2,1H3/t6-,8?/m1/s1
