20
gdb 39456	2.34001	1.86011	1.25438	2.223	79.05	-0.2477	0.0049	0.2527	1049.4851	0.173602	-403.129614	-403.121862	-403.120918	-403.161654	30.784	
C	-0.1068160631	 1.4219865212	 0.0809669437	-0.306133
C	 1.2487261515	 0.7451707963	 0.1440444596	-0.004813
C	 2.0338240667	 0.7369685603	 1.4485153534	-0.250014
C	 2.6257941705	-0.6116138269	 1.8653425693	-0.070206
O	 1.6174500344	-1.6259409409	 1.9829800236	-0.222625
C	 0.5029353319	-1.2295511869	 2.6682430468	 0.088839
N	-0.6118784802	-0.9926964982	 2.1316735671	-0.214776
C	-0.6795440207	-1.1393426084	 0.6744387233	-0.186195
C	-0.0042249696	-0.0586069858	-0.1651431408	 0.010861
H	-0.5238194124	 1.73586129	 1.0329902655	 0.122894
H	-0.3436110252	 2.0819485101	-0.7468364014	 0.106934
H	 1.8829642718	 0.8896925077	-0.7275250368	 0.082757
H	 2.8624127696	 1.4513849285	 1.3665338725	 0.100623
H	 1.4062565006	 1.1052301922	 2.2666018225	 0.117287
H	 3.3272758152	-0.9977111208	 1.1206350728	 0.11811
H	 3.1650649693	-0.5031394527	 2.8186698357	 0.098939
H	 0.6298069899	-1.1396210693	 3.7509734654	 0.106952
H	-0.2510329509	-2.1053110596	 0.3791724101	 0.113215
H	-1.7405461377	-1.1565970106	 0.402028285	 0.101402
H	-0.0683839217	-0.3318998062	-1.2171290074	 0.08595
104.1739	182.4519	221.337	268.1231	310.3873	331.9561	402.5031	506.4081	527.4269	631.1365	713.2033	742.4181	768.271	850.057	877.5918	883.6996	932.8761	965.8568	994.332	1014.7701	1038.4923	1060.3632	1078.778	1089.685	1114.1205	1138.8752	1149.3226	1183.7535	1256.3533	1273.7153	1279.1942	1291.9661	1355.6709	1366.0053	1383.3725	1405.4357	1413.9712	1431.1415	1477.0128	1495.1645	1500.1516	1504.6372	1740.0384	2993.3756	3020.2286	3035.698	3060.1649	3069.7507	3092.9691	3095.4505	3112.2291	3125.7921	3130.0212	3210.5834
C1C2CCOC=NCC12	C1[C@H]2CCOC=NC[C@@H]12	
InChI=1S/C7H11NO/c1-2-9-5-8-4-7-3-6(1)7/h5-7H,1-4H2/b8-5-	InChI=1S/C7H11NO/c1-2-9-5-8-4-7-3-6(1)7/h5-7H,1-4H2/b8-5-/t6-,7-/m1/s1
