17
gdb 82675	2.73625	1.63059	1.23926	5.2844	77.26	-0.2638	0.012	0.2758	1029.1446	0.136931	-380.81837	-380.810805	-380.809861	-380.850312	29.303	
C	 0.0213103727	 1.6170900335	-0.0232923728	-0.433835
C	 0.0890352251	 0.0977601769	-0.0044384651	-0.039577
C	 1.1312192011	-0.6977959308	-0.8491533515	-0.119129
C	 2.4868435382	-0.2212192929	-0.299770874	-0.155644
N	 2.1744402112	-0.8774044027	 1.0150715645	-0.172119
C	 1.1973643354	-1.7487723475	 0.3231185641	-0.099496
C	 0.6798462604	-0.6581973627	 1.1976311381	 0.235605
C	 0.1637691451	-0.713770404	 2.5263496905	 0.193282
N	-0.301851636	-0.736361578	 3.5851158765	-0.348574
H	 0.983916957	 2.084103188	 0.1986999767	 0.128452
H	-0.3139276962	 1.9754258139	-1.0024265178	 0.124518
H	-0.6958512785	 1.9725020919	 0.723706318	 0.139905
H	-0.9020926939	-0.3261206343	-0.1965533309	 0.100063
H	 0.9542363396	-0.8889337373	-1.905180503	 0.087648
H	 3.3335248684	-0.7562276219	-0.7358482151	 0.124382
H	 2.7063778043	 0.8493015166	-0.2586759939	 0.112169
H	 1.1486677361	-2.8255507988	 0.4136592156	 0.122352
128.3856	157.1564	174.291	242.3579	292.5654	448.0017	504.8974	533.3733	551.6033	611.086	663.2827	761.8158	788.3355	835.4008	874.0784	928.2643	949.7712	972.6354	1006.7962	1032.5408	1063.8541	1088.5874	1124.6091	1141.1242	1151.5963	1167.4302	1210.948	1224.4598	1285.2159	1303.5027	1351.1061	1397.0182	1415.2643	1490.6931	1494.5236	1520.852	2354.9689	3039.7692	3058.0522	3061.5223	3103.8548	3116.5731	3125.1297	3144.4473	3213.9975
CC1C2CN3C2C13C#N	C[C@H]1[C@H]2CN3[C@H]2[C@]13C#N	
InChI=1S/C7H8N2/c1-4-5-2-9-6(5)7(4,9)3-8/h4-6H,2H2,1H3	InChI=1S/C7H8N2/c1-4-5-2-9-6(5)7(4,9)3-8/h4-6H,2H2,1H3/t4-,5+,6+,7-,9?/m0/s1
