18
gdb 61090	2.81396	1.16582	1.02007	2.5193	80.1	-0.245	0.0197	0.2648	1254.3312	0.145791	-401.904912	-401.895606	-401.894662	-401.939516	33.728	
C	-0.3915255677	 1.0304454713	 1.1737222127	-0.390318
C	 0.1923773404	 0.4673842599	-0.1378427136	-0.134231
N	 1.5689755014	-0.0258741229	 0.044635465	-0.337907
C	 1.7962597593	-1.0464271719	 0.7312657295	 0.481505
C	 3.049542968	-1.8054034274	 1.1164652145	-0.369897
C	 2.0607058628	-2.7234885601	 1.863614655	-0.078261
O	 0.9445090516	-1.8930004004	 1.418970979	-0.253379
C	-0.7001856559	-0.5261000634	-0.7440600047	 0.367822
C	-1.4413667886	-1.3203325185	-1.2582010242	-0.505617
H	 0.2929110312	 1.7774179448	 1.5853538984	 0.118813
H	-1.3586672254	 1.5036845183	 0.9840488165	 0.122766
H	-0.5293463069	 0.231266162	 1.904686445	 0.140952
H	 0.274686159	 1.30018289	-0.8466098239	 0.113168
H	 3.5848212852	-2.2557878792	 0.2792000196	 0.141794
H	 3.7504365998	-1.2469036051	 1.738896735	 0.13925
H	 1.9626462884	-3.74259001	 1.4828305106	 0.126666
H	 2.1315282407	-2.7306130444	 2.9537954592	 0.124007
H	-2.0917464935	-2.0292496329	-1.7072831836	 0.192868
52.5137	97.7249	132.5999	161.7601	197.6372	232.4431	274.7673	369.4419	436.7489	526.1075	596.4298	611.2883	633.9524	649.3207	728.5943	790.2209	827.5399	903.5859	938.8278	961.8803	1010.8697	1055.4581	1067.1226	1090.4415	1134.3957	1157.6069	1160.2271	1199.2492	1240.6259	1338.7669	1347.1874	1361.4738	1397.4506	1466.405	1488.6463	1500.8939	1519.9345	1833.9157	2232.9867	3026.5346	3048.2089	3066.7771	3089.8962	3120.8936	3122.8664	3141.1901	3146.3211	3505.0896
CC(N=C1CCO1)C#C	C[C@@H](N=C1CCO1)C#C	
InChI=1S/C7H9NO/c1-3-6(2)8-7-4-5-9-7/h1,6H,4-5H2,2H3	InChI=1S/C7H9NO/c1-3-6(2)8-7-4-5-9-7/h1,6H,4-5H2,2H3/t6-/m1/s1
