21
gdb 81224	2.30199	1.876	1.62147	1.8327	81.56	-0.2326	0.0775	0.3101	982.5791	0.184579	-387.028054	-387.020667	-387.019723	-387.059225	31.281	
C	-0.0717754172	 1.63902278	-0.0325052161	-0.444669
C	 0.0450104519	 0.1227251451	 0.0041111197	 0.002689
C	 1.1197333447	-0.6814418094	-0.7557525429	 0.045136
C	 2.4589482116	-0.0375453305	-0.2326877377	-0.311334
C	 2.1297344568	-0.2335038789	 1.2722480676	 0.029368
C	 1.6229461321	 0.5642701331	 2.5273857729	-0.284847
C	 0.4618581341	-0.5125643399	 2.6306704487	-0.357482
C	 0.7046311569	-0.7204520445	 1.1303157799	 0.418851
O	 0.8243129627	-1.8096062901	 0.156632124	-0.360008
H	 0.8763650303	 2.1548860921	 0.1323503544	 0.124751
H	-0.4600034436	 1.9610634311	-1.0053875778	 0.118091
H	-0.7783360543	 1.9898473585	 0.7277332416	 0.121636
H	-0.9270816274	-0.3349571416	-0.2004782462	 0.085769
H	 1.0408169208	-0.9536944462	-1.8084576357	 0.076412
H	 3.3446919681	-0.5994344881	-0.5358991281	 0.103803
H	 2.5696745407	 0.9889282128	-0.5907527947	 0.105223
H	 2.7298861127	-1.0606554081	 1.6615950719	 0.08629
H	 2.309229086	 0.6211260567	 3.373735686	 0.104384
H	 1.2346599617	 1.5608883596	 2.3170313841	 0.114234
H	 0.7765588105	-1.3669222685	 3.2354100827	 0.120019
H	-0.5301477892	-0.1844431732	 2.9502175958	 0.101682
189.8569	214.2889	253.045	294.5099	356.5369	395.5015	439.7093	556.2159	593.9953	667.0346	681.6229	730.1665	769.2224	793.4803	832.7199	852.7763	875.9197	877.8144	944.5848	962.8175	1013.9718	1029.7789	1058.7894	1075.0284	1111.1577	1140.0496	1150.1038	1161.9467	1188.78	1200.7456	1216.2607	1224.098	1231.8522	1269.3881	1272.5294	1289.1619	1317.6918	1387.7342	1402.4827	1414.1419	1478.2926	1482.3432	1496.9464	1504.1137	1509.9478	3034.6092	3058.4907	3064.1794	3070.412	3072.3491	3086.6909	3089.5295	3116.7359	3118.3985	3123.2679	3127.4641	3149.4744
CC1C2CC3CCC13O2	C[C@H]1[C@H]2C[C@H]3CC[C@@]13O2	
InChI=1S/C8H12O/c1-5-7-4-6-2-3-8(5,6)9-7/h5-7H,2-4H2,1H3	InChI=1S/C8H12O/c1-5-7-4-6-2-3-8(5,6)9-7/h5-7H,2-4H2,1H3/t5-,6+,7+,8+/m0/s1
