19
gdb 108656	1.99009	1.68742	0.9818	4.7239	82.96	-0.2077	0.0018	0.2095	1224.7418	0.160163	-419.246306	-419.237136	-419.236191	-419.280334	34.227	
C	-0.1894712518	 1.5750114041	 0.0160978915	-0.371767
C	 0.0388075718	 0.0533336281	 0.0393919442	-0.307316
C	 0.7590220477	-0.4554967312	-1.1726095457	 0.143547
C	 2.0233261231	-0.9057752267	-1.3002438961	 0.204236
N	 3.0010764663	-1.0991300784	-0.351317748	-0.590544
C	 2.2605180864	-1.3146644662	-2.7305045258	-0.164255
O	 1.0381145631	-1.0370453143	-3.3995678724	-0.252785
C	 0.1257972141	-0.5364802576	-2.4870049253	 0.358285
N	-1.0639798693	-0.209823532	-2.7822648046	-0.5658
H	 0.7609621651	 2.1184607177	-0.0140692348	 0.10148
H	-0.7696082895	 1.8503877307	-0.8675876919	 0.152591
H	-0.7386224629	 1.8991025413	 0.9058643502	 0.107066
H	 0.5861783244	-0.2298100133	 0.9476787505	 0.080119
H	-0.9350600982	-0.4463212148	 0.0977704512	 0.128749
H	 2.8769068499	-0.603124796	 0.5187835804	 0.260372
H	 3.9549897659	-1.0676010962	-0.6792243282	 0.255034
H	 3.0748469198	-0.7453543411	-3.2020943565	 0.116102
H	 2.4993954994	-2.3832228876	-2.8199974276	 0.1289
H	-1.2462829453	-0.3714829066	-3.7728854111	 0.215985
57.2131	123.6859	174.2752	203.2099	217.4158	282.9932	306.9297	325.0167	398.5408	513.3193	532.6833	584.5643	598.4302	670.4498	738.5871	747.5006	782.0547	840.3532	946.1958	952.6782	1004.5506	1032.4657	1064.0488	1085.991	1094.0522	1197.6325	1200.1563	1214.8739	1284.933	1310.7797	1355.256	1394.1413	1401.8855	1427.497	1479.756	1496.6564	1507.4647	1512.4241	1651.0624	1729.0802	1755.9512	2998.6668	3019.809	3031.4819	3035.4407	3062.2966	3101.3502	3131.7669	3488.4124	3568.823	3668.5196
CCC1=C(N)COC1=N	CCC1=C(OC[C]1N)[NH]	
InChI=1S/C6H10N2O/c1-2-4-5(7)3-9-6(4)8/h8H,2-3,7H2,1H3	InChI=1S/C6H10N2O/c1-2-4-5(7)3-9-6(4)8/h8H,2-3,7H2,1H3
