15
gdb 124246	2.78175	1.54048	0.99822	2.7154	72.58	-0.2206	-0.0561	0.1645	1114.5489	0.113182	-450.153784	-450.145382	-450.144438	-450.186932	30.691	
C	-0.0254706876	 1.5326922627	 0.0362963158	-0.507809
C	-0.0409292286	 0.0151954952	 0.0649610757	 0.325994
O	-0.0532532704	-0.6090877791	 1.1199677871	-0.351491
C	-0.0352202354	-0.7009032868	-1.1922100561	 0.187198
C	-0.0351502578	-2.0810833045	-1.4071641784	 0.320558
N	-0.1287082705	-3.0642966978	-0.4776357224	-0.590169
N	 0.0285268621	-2.3222446634	-2.7468393806	-0.265601
N	 0.0604188529	-1.1728080911	-3.3780513142	-0.097683
N	 0.0212405199	-0.2037225183	-2.473344199	-0.279547
H	 0.8627433545	 1.9045691745	-0.4878203513	 0.13798
H	-0.9070902588	 1.9205419772	-0.4873836433	 0.140148
H	-0.0217506423	 1.9094033187	 1.0594511063	 0.153746
H	 0.0344058329	-2.7751665996	 0.4756622473	 0.278847
H	 0.1634273619	-3.9865675434	-0.7560984347	 0.265601
H	 0.035214257	 0.7547712156	-2.7824399523	 0.282229
92.9173	115.783	166.1015	171.3657	307.2183	329.384	394.4011	431.1019	496.2275	508.6407	530.1692	586.2802	639.6294	701.9136	756.6992	775.7469	949.9567	998.8319	1040.7394	1075.9223	1110.881	1150.1362	1229.7677	1301.7854	1360.6018	1384.3725	1409.4949	1470.5601	1479.1074	1539.5615	1571.9436	1657.5562	1730.4167	3030.5663	3091.2324	3154.2118	3572.45	3660.6425	3706.9449
CC(=O)C1=C(N)N=NN1	CC(=O)c1c(N)nn[nH]1	
InChI=1S/C4H6N4O/c1-2(9)3-4(5)7-8-6-3/h1H3,(H3,5,6,7,8)	InChI=1S/C4H6N4O/c1-2(9)3-4(5)7-8-6-3/h1H3,(H3,5,6,7,8)
