19
gdb 41998	3.33636	1.54813	1.11849	4.3076	77.42	-0.211	0.0653	0.2763	1092.1237	0.163631	-419.237187	-419.229725	-419.228781	-419.269261	28.589	
C	 0.0609700943	 1.3664944399	-0.1920328349	-0.093745
C	 1.4512045888	 1.8490918708	 0.2497153508	-0.192963
N	 2.094673846	 0.5762770857	 0.4986767168	-0.127935
C	 3.4274971671	 0.4545253904	 1.0774785441	-0.163016
C	 3.4631625979	-0.7188806065	 2.0644890165	-0.220896
C	 2.6850926142	-1.9194418329	 1.5034292098	-0.149233
N	 1.3069532347	-1.5863615634	 1.157459657	-0.367072
C	 1.1472402793	-0.4067553788	 0.727446046	 0.484285
O	-0.0867956153	 0.0742009334	 0.4041659511	-0.254175
H	-0.7537838035	 2.0042803498	 0.15570013	 0.124497
H	 0.0000677587	 1.2697068581	-1.2827943844	 0.117903
H	 1.9570711588	 2.4245174151	-0.5329433577	 0.115561
H	 1.4063262039	 2.4732152412	 1.1572158596	 0.104341
H	 4.1687365174	 0.3118203204	 0.2793610743	 0.109679
H	 3.6825258684	 1.3929394575	 1.5865958409	 0.103664
H	 4.5023529898	-0.9858670204	 2.2799788878	 0.099489
H	 2.9980676855	-0.4134439349	 3.0088248772	 0.110433
H	 3.2084524789	-2.3197897998	 0.6206890888	 0.095802
H	 2.6696264148	-2.7278379656	 2.2418726663	 0.103383
108.2711	149.7789	189.9568	220.2258	313.1695	398.6122	484.0915	539.6571	657.2104	696.9964	726.8982	762.5741	882.576	884.1607	892.8999	927.3064	972.5982	989.4093	1051.9545	1098.5052	1122.0032	1142.6406	1175.437	1209.2147	1215.6907	1225.1889	1250.8273	1261.1311	1292.0278	1316.879	1352.5512	1365.439	1378.1274	1408.7028	1448.0139	1482.0739	1498.6145	1516.7111	1523.9277	1539.3734	1772.9768	2966.7523	2980.8595	3003.6396	3029.5882	3031.636	3044.2379	3059.4882	3061.3539	3090.2267	3113.5091
C1CN2CCCN=C2O1	C1CN2CCC[N][C]2O1	
InChI=1S/C6H10N2O/c1-2-7-6-8(3-1)4-5-9-6/h1-5H2	InChI=1S/C6H10N2O/c1-2-7-6-8(3-1)4-5-9-6/h1-5H2
