17
gdb 98059	3.53392	1.04139	0.80965	3.7825	74.17	-0.2185	-0.0837	0.1348	1382.4621	0.135511	-451.350673	-451.340618	-451.339674	-451.386676	35.322	
C	-0.0541161752	 1.3651927311	 0.0552727595	-0.306342
N	-0.1621050592	-0.0646911422	-0.1173163179	-0.295373
C	-1.376393249	-0.6865584836	-0.094550239	 0.254275
N	-2.4752240316	-0.0312288694	-0.0323332093	-0.540997
C	-1.215771035	-2.1989227889	-0.1510795556	 0.339708
O	-0.1037280551	-2.6917702418	-0.1049297221	-0.34135
C	-2.410004076	-3.1473610277	-0.2542219077	 0.291574
N	-2.0009513276	-4.4344928826	-0.4416506795	-0.53102
N	-3.6078243622	-2.69799649	-0.1798628332	-0.516387
H	 0.9905136105	 1.6602067822	-0.0644941042	 0.11603
H	-0.6620501831	 1.8820545752	-0.6934247528	 0.145991
H	-0.4101228404	 1.6902581064	 1.0420247927	 0.128178
H	 0.6460161406	-0.6534310706	-0.0107300807	 0.256102
H	-3.2607397045	-0.6803006961	-0.0624467666	 0.254838
H	-1.0198214426	-4.6241247598	-0.3083530356	 0.275382
H	-2.6567487743	-5.1881788145	-0.3288476671	 0.256789
H	-4.3003513553	-3.4457586478	-0.254745021	 0.212601
41.1444	57.8804	96.695	121.6309	183.0098	296.8421	311.7574	339.8145	371.0362	391.1828	420.2271	465.1265	534.8272	587.9371	599.7904	645.2958	792.2268	834.3725	861.0235	936.4868	976.4455	1083.2281	1128.5122	1158.6323	1174.0573	1194.0537	1223.8334	1350.5188	1429.5537	1453.5711	1472.6446	1513.3599	1550.6242	1597.9042	1679.4119	1722.3269	1752.4023	3015.2852	3080.1845	3129.3455	3447.0949	3481.7655	3590.8149	3666.0375	3722.6751
CNC(=N)C(=O)C(N)=N	CNC(=N)C(=O)C(=N)N	
InChI=1S/C4H8N4O/c1-8-4(7)2(9)3(5)6/h1H3,(H3,5,6)(H2,7,8)	InChI=1S/C4H8N4O/c1-8-4(7)2(9)3(5)6/h1H3,(H3,5,6)(H2,7,8)
