19
gdb 64392	2.16041	1.64364	1.24944	3.988	74.31	-0.2468	0.0229	0.2697	1079.8462	0.159935	-419.222641	-419.213619	-419.212675	-419.256181	34.113	
C	-0.4294380191	 1.5212460456	-0.0438184464	-0.473066
C	-0.0324166638	 0.0517838435	 0.0069908097	 0.392858
O	-1.1797430811	-0.7935437714	-0.1224388126	-0.469092
C	 0.9496092861	-0.4058125053	-1.0904284032	-0.246634
C	 1.8065697978	-1.5249152859	-0.4267660804	-0.180538
N	 1.3147955041	-1.7024225468	 0.9586540325	-0.28165
C	 0.7133972416	-0.4133551729	 1.3101608115	-0.220327
C	 1.7488687909	 0.5422100722	 1.7347662167	 0.316924
N	 2.5453211426	 1.3195650254	 2.0464324312	-0.336623
H	 0.4410610998	 2.1742691896	 0.0531284441	 0.151036
H	-0.9305773177	 1.7409062835	-0.9907181794	 0.131877
H	-1.1214552247	 1.7677405914	 0.7715337211	 0.111064
H	-1.8706697155	-0.451666215	 0.4560644272	 0.279489
H	 0.3792294534	-0.7624572699	-1.949855767	 0.121512
H	 1.5730235519	 0.4294597715	-1.418034611	 0.115917
H	 1.7523863622	-2.4779796048	-0.9563179977	 0.11323
H	 2.8596953179	-1.229193146	-0.3911366833	 0.127831
H	 0.5467001947	-2.3664248947	 0.9384131684	 0.234338
H	 0.0077336791	-0.53463705	 2.1381716287	 0.111854
78.5274	117.7654	149.8081	238.0174	260.5575	289.8911	326.337	372.3544	397.28	424.2199	509.3585	568.3453	615.9258	704.6882	797.3219	817.9567	856.8524	891.1505	910.4053	937.604	977.9883	993.3241	1043.1511	1097.8931	1123.7135	1156.8077	1170.0854	1219.5343	1235.9531	1282.5377	1303.3342	1343.5137	1352.5674	1393.6846	1413.8707	1479.5933	1480.9162	1492.313	1495.7901	1511.1851	2354.8169	3027.3694	3056.1638	3067.4778	3076.3421	3098.2982	3107.6872	3129.7662	3133.2722	3521.8603	3798.3336
CC1(O)CCNC1C#N	C[C@@]1(O)CCN[C@H]1C#N	
InChI=1S/C6H10N2O/c1-6(9)2-3-8-5(6)4-7/h5,8-9H,2-3H2,1H3	InChI=1S/C6H10N2O/c1-6(9)2-3-8-5(6)4-7/h5,8-9H,2-3H2,1H3/t5-,6+/m0/s1
