17
gdb 106899	3.04879	1.27153	1.05925	3.4038	68.99	-0.2344	-0.0384	0.1961	1160.0591	0.13355	-458.935619	-458.926727	-458.925782	-458.969571	32.438	
C	 0.1681403037	 1.5161095102	-0.0896099895	-0.385341
C	-0.0497411521	-0.0004896533	 0.0243939442	-0.316103
C	 0.5099703883	-0.5539432041	 1.2964563374	 0.404509
O	 1.9310775988	-0.7195664327	 1.4220648064	-0.296638
C	 1.0878955697	-1.8876677531	 1.6187313347	-0.202604
C	 0.6353128934	-1.7520562516	 3.0658529373	 0.39345
O	 0.6183155921	-2.4719504723	 4.0174566523	-0.295465
C	 0.0480667414	-0.3180287266	 2.7533359234	-0.045187
O	 0.5327342741	 0.8117500982	 3.4141743719	-0.423172
H	 1.2362867027	 1.7512068239	-0.1112992847	 0.133379
H	-0.2840089348	 1.9026858419	-1.006891417	 0.119967
H	-0.274139779	 2.0432914352	 0.7606807359	 0.139144
H	-1.1216664508	-0.2302900874	-0.0103368818	 0.113907
H	 0.4177413045	-0.5153494792	-0.8220444513	 0.117917
H	 1.2740305939	-2.7492274588	 0.9890810894	 0.129117
H	-1.0406076559	-0.3349567266	 2.8768579804	 0.117434
H	 1.4878477499	 0.8248915966	 3.272085341	 0.295687
67.3298	93.2782	152.9435	186.9589	225.4525	259.3109	323.1032	387.9726	464.1931	508.409	562.6082	614.8467	705.1303	724.8466	784.8517	838.6313	870.0382	917.0326	961.7336	1009.2694	1034.8961	1060.6498	1104.4359	1134.166	1169.9274	1203.7017	1223.6815	1276.0818	1316.6286	1339.9401	1409.7878	1417.1426	1448.6674	1472.6946	1496.1723	1509.1101	1903.8964	3033.9148	3045.6182	3065.1176	3075.0713	3120.0183	3121.8321	3200.4249	3780.3692
CCC12OC1C(=O)C2O	CC[C@]12O[C@H]1C(=O)[C@H]2O	
InChI=1S/C6H8O3/c1-2-6-4(8)3(7)5(6)9-6/h4-5,8H,2H2,1H3	InChI=1S/C6H8O3/c1-2-6-4(8)3(7)5(6)9-6/h4-5,8H,2H2,1H3/t4-,5+,6-/m1/s1
