12
gdb 16263	3.47931	1.98297	1.42466	2.7578	63.18	-0.2513	-0.039	0.2123	833.3833	0.081308	-381.27428	-381.267352	-381.266408	-381.305451	25.738	
O	-0.0684039342	 0.0034358441	-0.0058900792	-0.273495
C	-0.0520565062	 1.1914101641	 0.0560937636	 0.349958
C	-1.1500734353	 2.2904748487	 0.1875724988	-0.367996
C	-0.0324193833	 3.3078126928	-0.0669054568	-0.054686
O	 0.9062312257	 3.1381243128	 0.9802620895	-0.270228
C	 1.0350687092	 2.2628861403	-0.1759688033	 0.204384
C	 2.2599351555	 2.1933467936	-0.8847375816	 0.176287
C	 3.2832785245	 2.0710135357	-1.5035134442	-0.389159
H	-1.8819674592	 2.1889085097	-0.6194418643	 0.141797
H	-1.6581563585	 2.3835515019	 1.1488610291	 0.145265
H	-0.0680028999	 4.260557251	-0.5803283295	 0.136127
H	 4.1912581418	 1.9714143053	-2.0460451623	 0.201745
116.554	143.7519	192.8095	364.6127	402.965	502.8079	527.9493	588.2154	625.0182	637.5496	670.0357	691.4939	799.6819	851.4313	922.1704	961.6865	984.9519	1041.2726	1127.1275	1155.9424	1214.7611	1259.013	1395.4646	1445.6871	1911.044	2243.1687	3070.3754	3135.2262	3208.3097	3499.0057
O=C1CC2OC12C#C	O=C1C[C@H]2O[C@@]12C#C	
InChI=1S/C6H4O2/c1-2-6-4(7)3-5(6)8-6/h1,5H,3H2	InChI=1S/C6H4O2/c1-2-6-4(7)3-5(6)8-6/h1,5H,3H2/t5-,6+/m1/s1
