21
gdb 58628	2.39513	1.36655	1.05076	1.4667	73.69	-0.2596	0.0694	0.329	1224.9897	0.180097	-461.341048	-461.331026	-461.330082	-461.375664	38.115	
C	 0.7549971626	 0.0979475591	-0.662446992	-0.396222
C	-0.0325133263	-0.0696187387	 0.6405006621	 0.050916
O	-0.0372015474	 1.1450597159	 1.3758228712	-0.432972
C	-1.4686412253	-0.5732950472	 0.4348148961	 0.346166
C	-2.4957406991	-0.1376309747	 1.3904253865	-0.222924
O	-2.3921862556	 0.484963525	 0.0941585768	-0.304601
C	-1.6502932105	-1.8265829066	-0.4290384172	 0.059679
C	-2.9169020373	-2.6353162758	-0.1474430663	-0.415553
O	-1.5933279527	-1.4554951627	-1.8024498712	-0.428529
H	 1.7499690635	 0.4832388433	-0.4247698447	 0.118023
H	 0.8536779812	-0.8397715395	-1.2124662242	 0.13348
H	 0.2540240216	 0.8134815218	-1.3224625223	 0.115248
H	 0.4805158727	-0.7965657582	 1.2836435591	 0.093968
H	-0.6059778716	 1.7500845034	 0.8814812276	 0.286394
H	-3.3928904707	-0.7306061572	 1.5411028986	 0.116474
H	-2.1957339243	 0.495248668	 2.2202420098	 0.132149
H	-0.7795809641	-2.4740579804	-0.2677853822	 0.089848
H	-3.812606849	-2.0214189066	-0.2907822045	 0.124333
H	-2.9662215577	-3.4705298496	-0.8503559822	 0.127488
H	-2.9260471783	-3.0350582371	 0.8714254747	 0.115347
H	-2.2103117018	-0.7194582023	-1.9033674458	 0.29129
66.8289	72.8539	203.9054	222.569	249.7429	268.9917	307.0736	319.8277	342.7688	381.2382	425.7104	434.4233	470.1813	492.3747	568.3195	627.0899	696.1074	839.951	851.8447	928.5781	932.885	955.866	1033.354	1052.024	1069.146	1094.7074	1109.236	1134.1164	1138.7666	1188.1278	1199.5209	1293.3596	1300.6223	1345.1908	1371.845	1389.7364	1407.6605	1411.7217	1422.2424	1427.9255	1483.0451	1491.3675	1494.9829	1499.4589	1520.2581	3028.7746	3035.8878	3039.0651	3046.3576	3108.2833	3116.8524	3119.6813	3123.8821	3139.2848	3213.2592	3767.5805	3776.8342
CC(O)C1(CO1)C(C)O	C[C@@H](O)[C@]1(CO1)[C@@H](C)O	
InChI=1S/C6H12O3/c1-4(7)6(3-9-6)5(2)8/h4-5,7-8H,3H2,1-2H3	InChI=1S/C6H12O3/c1-4(7)6(3-9-6)5(2)8/h4-5,7-8H,3H2,1-2H3/t4-,5-/m1/s1
