16
gdb 66025	2.49946	1.2957	1.12692	2.9886	75.49	-0.2747	-0.0068	0.2678	1136.0466	0.122145	-400.704425	-400.695437	-400.694492	-400.738337	32.573	
C	-0.1866567609	 1.5734675098	-0.0176300117	-0.449045
C	-0.0566591619	 0.0490924701	 0.000956473	 0.075
C	 1.1754758737	-0.493071714	-0.7787300518	-0.101129
O	 1.8944078013	-0.7448674321	 0.4416693171	-0.27593
C	 0.7113734543	-0.5454885295	 1.2468378145	-0.081213
C	 0.9147631951	 0.3001067681	 2.4046836978	 0.323495
C	 1.0683765378	 0.9965293876	 3.3719102939	-0.417249
C	-1.3267047342	-0.6009321951	-0.2916658422	 0.244993
N	-2.3322749195	-1.1225688722	-0.5226219186	-0.334954
H	 0.7802626307	 2.0292284146	 0.2078462445	 0.145352
H	-0.517238267	 1.9111761644	-1.0037661265	 0.137935
H	-0.9099009153	 1.9133929256	 0.7272164834	 0.1478
H	 0.9834188061	-1.4113331734	-1.3452555218	 0.125115
H	 1.6837427426	 0.2383547477	-1.4146750772	 0.124307
H	 0.2845860336	-1.5087744856	 1.5557660959	 0.123422
H	 1.2096871835	 1.606922814	 4.2301992099	 0.212102
59.2876	136.0919	143.5513	189.6759	224.3063	242.8223	322.5375	348.1617	458.6704	514.9432	568.0229	580.1061	624.1087	643.2612	687.656	820.8962	902.2302	939.8723	961.0009	973.6075	1029.2647	1068.4929	1141.0881	1154.6352	1201.3002	1221.2948	1280.4702	1345.5222	1371.2212	1415.1871	1486.3215	1490.2856	1522.2408	2237.8593	2353.9034	3018.0545	3032.8942	3051.2798	3088.9049	3128.4395	3137.1546	3498.8549
CC1(COC1C#C)C#N	C[C@]1(CO[C@H]1C#C)C#N	
InChI=1S/C7H7NO/c1-3-6-7(2,4-8)5-9-6/h1,6H,5H2,2H3	InChI=1S/C7H7NO/c1-3-6-7(2,4-8)5-9-6/h1,6H,5H2,2H3/t6-,7+/m0/s1
