21
gdb 93229	2.5663	1.36998	0.9563	2.7947	79.49	-0.228	-0.0189	0.209	1273.8365	0.181618	-424.26626	-424.256957	-424.256013	-424.300261	35.051	
C	-0.0356258716	 1.5287406557	 0.09785172	-0.404391
C	 0.0258711698	 0.0122097418	-0.0098328735	 0.145942
C	 0.690886116	-0.4748797173	-1.3010993515	-0.204784
C	 0.8169102331	-2.0073944832	-1.3019392517	-0.323447
C	 1.3664147723	-2.5378966453	 0.0133833741	 0.384282
O	 2.1770214028	-3.4318578563	 0.0748832111	-0.305193
C	 0.7753059149	-1.8718816008	 1.267291734	 0.030805
C	 1.5405862695	-2.2093162103	 2.5340340236	-0.399423
O	 0.7630661997	-0.4550530181	 1.1163501071	-0.272591
H	 0.9724991559	 1.9532085693	 0.0654080518	 0.126895
H	-0.6175408695	 1.9499413143	-0.7272130756	 0.115503
H	-0.5015295142	 1.8249457873	 1.0411011561	 0.125701
H	-0.9992979877	-0.3994278929	 0.0405815975	 0.060876
H	 0.120144909	-0.1393307954	-2.1742416974	 0.100972
H	 1.6865592912	-0.0201030649	-1.3680734583	 0.11275
H	-0.1827922345	-2.4508110625	-1.4230773213	 0.121561
H	 1.438867464	-2.380520086	-2.1191033904	 0.123121
H	-0.2683884176	-2.2345390529	 1.3504073136	 0.077972
H	 2.5679920498	-1.8435483825	 2.4633847629	 0.131991
H	 1.058571154	-1.7429156663	 3.3964104727	 0.118206
H	 1.5739281731	-3.2908860738	 2.6769664453	 0.133253
62.3936	140.422	176.3099	199.7606	224.2696	249.9142	286.9797	362.0341	410.7874	430.1717	483.5421	497.4349	562.1793	681.1237	759.1192	819.6308	856.1845	875.1419	952.6287	966.1598	1007.0264	1033.2338	1080.1608	1095.8138	1134.765	1148.847	1171.3583	1194.1959	1222.5348	1257.5957	1326.5127	1327.0764	1342.6365	1357.8251	1393.133	1398.9336	1406.6981	1416.5732	1462.5374	1479.1984	1481.2	1487.1665	1492.7298	1500.194	1819.7628	2909.2164	2931.0669	3008.5035	3031.9876	3044.7244	3058.6604	3077.0158	3104.1287	3117.9811	3124.9982	3133.4002	3145.3449
CC1CCC(=O)C(C)O1	C[C@H]1CCC(=O)[C@@H](C)O1	
InChI=1S/C7H12O2/c1-5-3-4-7(8)6(2)9-5/h5-6H,3-4H2,1-2H3	InChI=1S/C7H12O2/c1-5-3-4-7(8)6(2)9-5/h5-6H,3-4H2,1-2H3/t5-,6+/m0/s1
