21
gdb 69427	2.71815	1.26038	1.18569	0.674	87.59	-0.2525	0.056	0.3085	1189.5967	0.182767	-349.931757	-349.923041	-349.922097	-349.964676	34.733	
C	 0.1143902756	 1.4950513646	 0.2588113176	-0.484495
C	 0.1590431877	 0.0004159046	 0.0497044431	 0.381567
C	-0.9394325347	-0.8730329124	 0.6132899162	-0.362499
C	 0.4622819052	-0.9733787706	 1.1689035197	-0.053704
C	 1.3544954988	-2.0955770217	 0.6271213501	-0.177204
C	 1.1536645385	-2.0126518114	-0.9188211265	-0.249137
C	 0.848357449	-0.5283568585	-1.2057239779	-0.261329
C	 2.7471461591	-1.8836819427	 1.0155313184	 0.334715
C	 3.892463979	-1.6988359081	 1.3325224636	-0.483714
H	 1.1210809985	 1.9280627703	 0.2273509736	 0.11798
H	-0.4831280204	 1.9880556932	-0.5174362619	 0.114842
H	-0.3294185521	 1.7499886631	 1.226532738	 0.112764
H	-1.6762499361	-0.3873374828	 1.2447375732	 0.106853
H	-1.3427519626	-1.689721032	 0.0229195684	 0.105617
H	 0.6477189585	-0.6269797228	 2.179320336	 0.08901
H	 1.0373333132	-3.078489126	 0.998035993	 0.099768
H	 2.0260389606	-2.3809363213	-1.4613407937	 0.1116
H	 0.3064184487	-2.6430049144	-1.2031223215	 0.104264
H	 0.2470882547	-0.4000020028	-2.1129294501	 0.094395
H	 1.781584132	 0.028535236	-1.3543370713	 0.106387
H	 4.9036736668	-1.5436970141	 1.6163382521	 0.192319
87.0875	139.6519	209.7155	227.2019	276.5613	314.2789	368.6507	415.2894	454.0369	510.6346	569.5925	621.1923	627.228	684.6641	733.6533	791.9506	830.1724	848.4227	910.9686	920.7892	958.4106	973.1951	1009.6706	1043.6615	1053.6385	1068.7412	1084.6317	1106.434	1118.9378	1190.9027	1198.4961	1263.4066	1271.0117	1283.5362	1330.3041	1335.4396	1347.8381	1405.0353	1420.4152	1484.7421	1487.3408	1490.6305	1502.1923	1514.8017	2231.7192	3019.8636	3021.0562	3029.4617	3059.8878	3073.6957	3078.9989	3096.2282	3118.4853	3125.303	3174.1031	3206.0059	3505.292
CC12CC1C(CC2)C#C	C[C@]12C[C@H]1[C@@H](CC2)C#C	
InChI=1S/C9H12/c1-3-7-4-5-9(2)6-8(7)9/h1,7-8H,4-6H2,2H3	InChI=1S/C9H12/c1-3-7-4-5-9(2)6-8(7)9/h1,7-8H,4-6H2,2H3/t7-,8+,9+/m1/s1
