16
gdb 23482	3.65638	1.40757	1.22587	1.9305	72.43	-0.2395	-0.0065	0.233	1017.3537	0.124968	-437.780895	-437.773934	-437.77299	-437.812295	27.653	
O	-0.1725585791	 1.363487367	-0.0741721615	-0.391431
N	 0.0125938854	-0.0292848916	-0.0192859176	-0.264459
C	-1.0924739977	-0.638292577	 0.0904609876	 0.456917
C	-1.3795535417	-2.1227821717	 0.0509887594	-0.162682
C	-1.9500072994	-2.6342089416	 1.4124975199	-0.24181
C	-3.2830566475	-1.9094721487	 1.1157029624	 0.104738
O	-3.1904141302	-0.4836757607	 1.3472036951	-0.298612
C	-2.5696493136	-0.2685046463	 0.054040885	-0.006376
C	-2.8638750782	-1.7415276049	-0.3714268386	-0.092174
H	 0.7306405122	 1.6830537772	-0.1740945392	 0.308178
H	-0.7025111184	-2.7662909781	-0.5079071152	 0.08964
H	-2.0901748292	-3.7196765145	 1.3752509533	 0.107958
H	-1.4229342873	-2.3616236259	 2.3295770579	 0.117548
H	-4.2184928213	-2.3206682411	 1.4983172259	 0.084113
H	-2.894264798	 0.6536696272	-0.4256675739	 0.100247
H	-3.386144256	-2.0661742093	-1.2658163506	 0.088206
106.5031	186.5863	256.837	348.3262	385.879	422.4558	501.6917	615.7475	687.7385	719.6421	788.6772	814.515	829.7017	855.2923	906.5278	920.489	970.3344	980.3393	991.048	999.6807	1065.829	1101.2041	1119.6705	1133.676	1163.6388	1182.4899	1218.8617	1243.7141	1259.5836	1284.8633	1297.949	1328.7642	1410.9488	1468.8631	1775.24	3050.0283	3098.5154	3116.9897	3128.5933	3130.7136	3169.4141	3817.2211
ON=C1C2CC3OC1C23	ON=C1[C@H]2C[C@H]3O[C@@H]1[C@@H]23	
InChI=1S/C6H7NO2/c8-7-5-2-1-3-4(2)6(5)9-3/h2-4,6,8H,1H2	InChI=1S/C6H7NO2/c8-7-5-2-1-3-4(2)6(5)9-3/h2-4,6,8H,1H2/t2-,3+,4-,6+/m0/s1
