14
gdb 76030	2.64875	1.25227	1.0846	1.6943	69.57	-0.2647	-0.0216	0.2431	1118.4718	0.100036	-432.859867	-432.850866	-432.849921	-432.893585	32.139	
N	 0.1486506063	 1.4306496116	-0.020288177	-0.502696
C	 0.0486955541	 0.0143884582	 0.0201067461	-0.019492
C	-0.4554113245	-0.6892249864	 1.2647523308	-0.289277
C	-0.9910604522	 0.0656300658	 2.3587211444	 0.307636
N	-1.4530155012	 0.6744195636	 3.2271686829	-0.325944
C	-1.3012462262	-0.7062332699	-0.0388376827	 0.206236
O	-2.3896924997	 0.1447690484	-0.1109122716	-0.434468
C	-1.4182852537	-1.9682140544	-0.7277156401	 0.255334
N	-1.4943178026	-2.9831904294	-1.2781322539	-0.330269
H	 0.2368353044	 1.7513319928	-0.9791508697	 0.252883
H	-0.6780222273	 1.8685908006	 0.3738937018	 0.263184
H	 0.8674023454	-0.4959148756	-0.4759129057	 0.139593
H	 0.0362032622	-1.6152395035	 1.5419250087	 0.163196
H	-3.0936218951	-0.1794059419	 0.4652416059	 0.314083
99.923	123.7555	147.7087	166.1286	204.8905	257.5337	339.889	364.4113	400.2074	470.4676	499.8727	574.1023	629.5701	647.0869	722.7187	807.3584	816.2967	886.1573	998.0238	1015.1423	1107.1773	1130.0737	1192.0823	1250.4083	1285.3275	1350.9853	1359.9843	1454.9906	1668.6607	2342.8825	2355.3705	3175.6669	3183.2108	3510.8685	3591.3425	3780.6356
NC1C(C#N)C1(O)C#N	N[C@H]1[C@@H](C#N)[C@]1(O)C#N	
InChI=1S/C5H5N3O/c6-1-3-4(8)5(3,9)2-7/h3-4,9H,8H2	InChI=1S/C5H5N3O/c6-1-3-4(8)5(3,9)2-7/h3-4,9H,8H2/t3-,4+,5-/m1/s1
