17
gdb 36222	3.62325	1.076	0.96147	1.5958	79.13	-0.2424	0.0003	0.2427	1249.5798	0.135131	-384.643215	-384.63515	-384.634206	-384.676306	30.804	
C	-0.0577448286	-1.1683739419	 0.4263629296	-0.458513
C	-0.0335579936	-0.0014634708	 0.1399941032	 0.306319
C	 0.0224311351	 1.4212926391	-0.1952676535	-0.466751
C	 1.4239787503	 1.9745879266	-0.1556467541	 0.348094
C	 2.0641041119	 2.6364983374	-1.1244807023	-0.19017
C	 3.464131595	 3.0516785367	-0.7199135065	-0.286773
C	 3.5533880484	 2.5832397433	 0.7286466112	 0.046854
O	 2.6107646849	 3.2014078207	 1.6065148355	-0.259184
C	 2.2944641542	 1.8977639446	 1.0621942632	-0.063149
H	-0.0903563046	-2.2005323416	 0.6734664466	 0.19899
H	-0.4100391841	 1.5850980163	-1.1891958464	 0.137297
H	-0.6116315599	 1.9753521753	 0.5121851006	 0.147154
H	 1.6371037063	 2.8920067555	-2.0885967916	 0.097223
H	 4.2287364004	 2.5663460294	-1.3403083742	 0.114193
H	 3.6217015069	 4.1335325649	-0.8072430448	 0.125743
H	 4.5103837156	 2.3281470182	 1.1755276756	 0.096511
H	 2.1992437915	 1.0980545765	 1.7897662877	 0.106161
55.6949	100.1552	206.6649	283.1949	321.0044	343.5142	386.2722	446.8031	591.6326	621.5297	644.6417	670.6278	762.843	816.9731	824.4482	864.636	878.2542	920.8956	941.0988	954.5487	973.0603	1016.9904	1042.3267	1103.7314	1180.5287	1184.4475	1208.0776	1250.799	1277.3188	1307.2368	1328.3669	1370.3093	1410.4022	1459.5028	1460.9696	1701.7212	2238.4499	3003.6908	3026.4031	3056.9548	3062.4623	3150.2986	3172.7914	3187.4923	3505.9003
C#CCC1=CCC2OC12	C#CCC1=CC[C@H]2O[C@@H]12	
InChI=1S/C8H8O/c1-2-3-6-4-5-7-8(6)9-7/h1,4,7-8H,3,5H2	InChI=1S/C8H8O/c1-2-3-6-4-5-7-8(6)9-7/h1,4,7-8H,3,5H2/t7-,8+/m1/s1
