16
gdb 24420	3.5542	1.57004	1.13076	1.0898	69.88	-0.2332	0.0027	0.2359	1021.7029	0.127794	-437.919066	-437.912388	-437.911443	-437.950236	26.006	
C	 0.0030185895	 1.4063471356	 0.005055416	-0.078985
C	 1.4413473474	 1.9639242783	 0.0154841116	-0.336278
C	 2.1935310057	 1.2352021754	-1.0476805743	 0.209533
C	 1.7191287418	 0.0973903788	-1.5980116241	 0.264074
C	 0.4496041781	-0.5888742837	-1.2288451997	-0.189601
O	-0.02808172	-0.018969528	-0.0197038606	-0.248697
O	 2.5973552264	-0.3235540255	-2.5540157132	-0.189133
C	 3.5839981159	 0.6142335248	-2.5143042121	 0.043417
N	 3.408251028	 1.5579404569	-1.6488036332	-0.323276
H	-0.5380167521	 1.6946290412	 0.9095478217	 0.115415
H	-0.5405032068	 1.8106141357	-0.8636769307	 0.096893
H	 1.42334011	 3.0433071532	-0.1727825204	 0.120067
H	 1.9038867934	 1.8160356833	 0.9990578922	 0.12408
H	-0.3027957287	-0.5002017934	-2.0320477435	 0.109941
H	 0.5982975559	-1.656620347	-1.0337157225	 0.133011
H	 4.4036160854	 0.4759944043	-3.2013838371	 0.149538
116.2321	219.0193	279.2339	328.8225	374.2469	458.2094	523.3929	643.3645	678.0677	714.0165	751.6411	823.2641	853.9135	934.3021	953.1004	975.4174	1029.6319	1084.1024	1097.2642	1120.2176	1142.5994	1204.2237	1220.3894	1253.7171	1279.9604	1311.2004	1334.3641	1374.2394	1414.4273	1424.7334	1476.2717	1491.8081	1500.7261	1544.3202	1680.6666	2951.6878	2982.5391	3031.899	3063.3331	3073.8999	3100.7514	3279.8709
C1CC2=C(CO1)OC=N2	C1Cc2c(CO1)ocn2	
InChI=1S/C6H7NO2/c1-2-8-3-6-5(1)7-4-9-6/h4H,1-3H2	InChI=1S/C6H7NO2/c1-2-8-3-6-5(1)7-4-9-6/h4H,1-3H2
