21
gdb 98296	2.53481	1.12884	0.92285	3.2601	80.88	-0.2349	0.0397	0.2746	1373.0102	0.181566	-420.413075	-420.402831	-420.401887	-420.44893	36.462	
C	-0.9535528974	 1.3843141473	 0.2259367283	-0.333259
N	-1.1969614151	-0.0403149492	 0.2966109875	-0.300378
C	-0.497637603	-0.9426714512	-0.4367214117	 0.393606
O	 0.3848853567	-0.656925996	-1.2290204685	-0.395929
C	-0.8633025863	-2.411502285	-0.1625961892	-0.058339
C	 0.2108304212	-3.0339942962	 0.7366114186	-0.392986
N	-2.1814206023	-2.5236435835	 0.4649272592	-0.078678
C	-3.3251914197	-2.6638887817	-0.4359068193	-0.227037
C	-2.8428493915	-3.8208254215	 0.3653600786	-0.220423
H	-0.6016995426	 1.7801907188	 1.1858122448	 0.123032
H	-0.1824534858	 1.5473693127	-0.5284655206	 0.167136
H	-1.8590550256	 1.9297919938	-0.0629281185	 0.121931
H	-1.8916362848	-0.4176541871	 0.924060878	 0.255804
H	-0.8363396003	-2.9111737477	-1.1446523889	 0.083447
H	 0.0346970168	-4.1058006094	 0.867278755	 0.113824
H	 1.1944290633	-2.8918574946	 0.283772906	 0.143923
H	 0.2031118235	-2.5615941752	 1.7234613505	 0.123271
H	-4.225004375	-2.1295752957	-0.1457497676	 0.118243
H	-3.1283268928	-2.6793361346	-1.5061138756	 0.123995
H	-2.3233806905	-4.6128751174	-0.1708421535	 0.11793
H	-3.3842034687	-4.1474411068	 1.2483150669	 0.120887
59.7353	81.9329	92.008	136.4737	159.983	232.7401	236.4543	261.6999	307.15	360.5037	460.074	475.9033	614.527	664.2497	755.5846	765.0844	833.4533	868.6972	907.6471	958.0552	1012.6793	1032.8703	1088.259	1109.8063	1116.3161	1123.6723	1132.1023	1155.4957	1174.2413	1177.7698	1207.0399	1266.954	1312.2023	1324.157	1351.5779	1397.8791	1437.9772	1490.5334	1492.1118	1492.8456	1499.0901	1501.0552	1519.1063	1566.6783	1779.9626	2970.9088	3023.7653	3044.167	3073.7376	3099.9529	3104.3294	3113.9911	3136.9097	3147.9452	3182.775	3197.0405	3608.4859
CNC(=O)C(C)N1CC1	CNC(=O)[C@@H](C)N1CC1	
InChI=1S/C6H12N2O/c1-5(6(9)7-2)8-3-4-8/h5H,3-4H2,1-2H3,(H,7,9)	InChI=1S/C6H12N2O/c1-5(6(9)7-2)8-3-4-8/h5H,3-4H2,1-2H3,(H,7,9)/t5-/m1/s1
