19
gdb 77890	2.30509	1.56759	1.4477	1.8755	70.43	-0.2516	0.0742	0.3259	1032.5872	0.159226	-460.133913	-460.125333	-460.124389	-460.16637	33.927	
C	-0.0285489763	 1.5463095657	 0.0156687662	-0.506888
C	 0.042786631	 0.0460974708	-0.0095419285	 0.260964
C	-0.8491407881	-0.8454680692	 0.802642387	 0.051805
O	-1.6217062204	-1.8800846502	 0.2314735421	-0.448604
C	 0.6215554237	-0.9706356604	 1.0407285756	-0.187001
C	 1.2606904454	-1.7809176284	-0.0778464932	 0.076453
O	 0.799031083	-3.1238025566	-0.2044257668	-0.452015
C	 0.6712650318	-0.7804020321	-1.1365267768	 0.034836
O	-0.1733920939	-1.3407701787	-2.1161164763	-0.453095
H	 0.9501983708	 1.9984649169	-0.1805571247	 0.120638
H	-0.7238068763	 1.9150004937	-0.7475366543	 0.133721
H	-0.3775713955	 1.9128626129	 0.9864288773	 0.121887
H	-1.3932434538	-0.3244978942	 1.5881415821	 0.103197
H	-1.0698579126	-2.6770966951	 0.2761700384	 0.2977
H	 1.0718292365	-0.77786579	 2.007279698	 0.091257
H	 2.3556885882	-1.7628742325	-0.0473092201	 0.081275
H	 0.63191051	-3.2425808018	-1.151731828	 0.290486
H	 1.4631316898	-0.2423462889	-1.6642258476	 0.088411
H	-0.9990826633	-1.5619912719	-1.6572011404	 0.294975
170.1108	183.2359	196.6336	232.1402	253.5136	265.9034	358.88	388.1386	424.1112	515.4556	531.3296	575.3277	655.4639	704.2509	759.0062	802.1723	812.8085	849.6037	901.747	956.4842	974.7104	1001.5458	1055.2508	1093.4584	1107.8992	1119.0657	1163.858	1178.4822	1221.7293	1258.733	1300.3525	1312.6991	1337.756	1353.9147	1386.0754	1415.0122	1429.1757	1457.4599	1472.1441	1486.7721	1497.2257	3024.0538	3038.3842	3078.0701	3085.0374	3097.539	3130.1652	3183.5992	3673.4752	3697.9911	3724.1745
CC12C(O)C1C(O)C2O	C[C@]12[C@@H](O)[C@H]1[C@@H](O)[C@H]2O	
InChI=1S/C6H10O3/c1-6-2(4(6)8)3(7)5(6)9/h2-5,7-9H,1H3	InChI=1S/C6H10O3/c1-6-2(4(6)8)3(7)5(6)9/h2-5,7-9H,1H3/t2-,3-,4+,5-,6-/m1/s1
