16
gdb 85397	2.01879	1.68769	0.9511	2.9158	67.56	-0.2727	-0.0206	0.2521	1165.4546	0.124484	-475.072771	-475.064616	-475.063672	-475.105979	30.324	
O	-0.10704548	 1.4477401188	-0.0131800527	-0.428368
C	 0.0028253759	 0.0374492864	 0.0228055594	 0.09423
C	-1.4119549691	-0.5260542362	-0.0078374281	-0.276938
C	-1.4086388787	-2.0276551377	-0.0474114614	 0.388416
N	-2.2649188128	-2.7275067714	 0.5553556886	-0.481764
O	-0.4204797103	-2.6471691598	-0.8063290635	-0.237111
C	 0.6762999919	-2.012042816	-1.3487269571	 0.407786
O	 1.4848907571	-2.6775631361	-1.923730557	-0.294982
C	 0.7598909415	-0.506843036	-1.1907387438	-0.368835
H	 0.7720281849	 1.826464131	 0.0903252816	 0.289975
H	 0.5038444664	-0.2894915637	 0.9478578875	 0.091465
H	-1.9958064185	-0.208580455	 0.8558075535	 0.15178
H	-1.9112672749	-0.1402533439	-0.9066048698	 0.139518
H	-2.1016577611	-3.7216748073	 0.3833150601	 0.235333
H	 0.323845992	-0.0570638947	-2.0923328917	 0.152829
H	 1.8210727556	-0.2455025383	-1.1823385854	 0.136666
75.4184	108.3816	153.2589	281.2256	309.1909	356.6213	419.1275	428.4819	475.7281	545.2347	578.2922	612.5887	632.8689	829.1165	887.0019	928.182	933.0682	949.43	1048.9128	1087.737	1096.672	1112.8877	1132.4664	1186.5072	1233.8235	1272.1605	1300.2878	1317.1143	1343.9008	1387.0677	1441.9519	1461.0784	1481.2045	1768.2808	1871.6104	2977.704	3035.1455	3042.189	3107.456	3142.2093	3472.0464	3818.5104
OC1CC(=N)OC(=O)C1	O[C@H]1C[C]([NH])OC(=O)C1	
InChI=1S/C5H7NO3/c6-4-1-3(7)2-5(8)9-4/h3,6-7H,1-2H2	InChI=1S/C5H7NO3/c6-4-1-3(7)2-5(8)9-4/h3,6-7H,1-2H2/t3-/m0/s1
