23
gdb 104763	2.06225	1.08301	0.92006	3.4126	87.76	-0.2419	-0.0155	0.2264	1444.449	0.203475	-388.301333	-388.290796	-388.289852	-388.337166	38.585	
C	-0.2852923381	 1.5686573155	-0.9267179912	-0.386497
C	-0.0775550204	 0.2544801654	-0.1614954119	-0.260963
C	-1.3793078916	-0.4729764591	 0.164650655	 0.361633
C	-2.3803945314	 0.2888305006	 1.029663855	-0.248962
C	-1.8641875498	 0.6395853586	 2.4298577121	-0.38628
C	-1.9381574835	-1.4064925952	-0.8591265253	-0.352555
C	-1.3568724158	-1.9900681648	 0.4262401066	-0.141402
C	-0.1246588197	-2.8041665672	 0.3690798043	 0.152157
O	 0.1279015375	-3.7042851254	 1.1341817777	-0.273987
H	 0.6783793631	 2.006344521	-1.2037750907	 0.116771
H	-0.8561004622	 1.4033631391	-1.8466824972	 0.119469
H	-0.822936734	 2.311453183	-0.3299726754	 0.122628
H	 0.563609249	-0.3973078144	-0.7627795071	 0.099365
H	 0.4785692594	 0.4513394028	 0.7627927598	 0.108613
H	-2.6829928624	 1.2046290105	 0.5072198408	 0.103622
H	-3.2901580288	-0.3159839837	 1.1217838664	 0.097711
H	-1.5509106257	-0.2593588961	 2.9707995593	 0.12685
H	-1.0073433917	 1.319173894	 2.3898120185	 0.120654
H	-2.644906587	 1.1313578031	 3.0178620679	 0.115828
H	-3.01251043	-1.4812866276	-0.9890708601	 0.121149
H	-1.3661474504	-1.5676201642	-1.7685834179	 0.117954
H	-2.0591656117	-2.3476764091	 1.172659017	 0.101274
H	 0.5774638252	-2.5503188069	-0.4575528536	 0.064969
66.2115	74.3358	111.4636	138.5138	204.9057	227.92	231.804	274.278	304.0018	374.008	400.6331	424.8937	460.5896	576.0702	663.1863	774.5926	795.782	854.4495	866.9746	892.617	946.7457	982.4905	1018.5143	1038.7922	1048.0902	1058.2882	1074.7176	1091.7003	1117.5039	1127.1337	1192.0814	1241.1106	1270.4147	1311.1612	1333.2977	1344.5306	1370.2327	1400.3819	1410.6402	1412.0907	1452.4153	1480.547	1484.4301	1489.7847	1501.4301	1502.4554	1503.2317	1514.2983	1808.4148	2865.1629	3027.1959	3035.683	3038.1129	3040.5061	3058.4995	3074.1873	3106.275	3108.3627	3108.9493	3112.2305	3122.2594	3164.9392	3208.6772
CCC1(CC)CC1C=O	CCC1(CC)C[C@H]1C=O	
InChI=1S/C8H14O/c1-3-8(4-2)5-7(8)6-9/h6-7H,3-5H2,1-2H3	InChI=1S/C8H14O/c1-3-8(4-2)5-7(8)6-9/h6-7H,3-5H2,1-2H3/t7-/m0/s1
