14
gdb 45463	2.8449	1.71808	1.23487	6.0968	62.24	-0.2427	-0.0822	0.1605	965.4384	0.102122	-473.835246	-473.828223	-473.827278	-473.867074	26.281	
O	 0.0001243928	-0.0036872259	 0.0849009001	-0.302946
C	 0.0058151605	 1.1853552029	 0.0082157192	 0.339165
O	-1.1219377003	 1.9409548646	-0.0987808615	-0.227838
C	-0.8483993131	 3.3501717623	-0.1639556504	 0.09525
C	-1.0566975895	 4.0684150982	 1.1833082842	-0.183403
N	 0.3785954372	 3.8540291021	 1.4799641041	-0.312937
C	 0.6727537855	 3.5306505329	 0.0588917946	-0.162917
C	 1.2368160443	 2.1286293366	-0.0280917556	 0.328341
O	 2.3725314966	 1.757529524	-0.1004523326	-0.27313
H	-1.3312492393	 3.7515515543	-1.0534203296	 0.113406
H	-1.3452788863	 5.1180426976	 1.0407302865	 0.110442
H	-1.7466702895	 3.5895156487	 1.8837894444	 0.132172
H	 0.8993209772	 4.6248258384	 1.8782304125	 0.241168
H	 1.1992293641	 4.2792626633	-0.5375328758	 0.103227
91.5502	139.6542	216.1848	324.0433	371.3442	455.54	508.4423	603.1137	630.9423	659.8703	729.5497	823.783	860.6921	898.5456	947.6826	977.9146	1013.2628	1054.3883	1073.222	1099.3503	1153.8287	1205.0066	1215.9023	1252.0245	1273.5222	1335.6257	1367.2087	1378.0904	1503.7205	1876.363	1891.569	3017.8724	3085.6629	3092.3232	3129.4805	3568.9067
O=C1OC2CNC2C1=O	O=C1O[C@H]2CN[C@H]2C1=O	
InChI=1S/C5H5NO3/c7-4-3-2(1-6-3)9-5(4)8/h2-3,6H,1H2	InChI=1S/C5H5NO3/c7-4-3-2(1-6-3)9-5(4)8/h2-3,6H,1H2/t2-,3+/m0/s1
