14
gdb 43564	2.16692	1.59425	1.04151	3.387	74.36	-0.2498	0.0114	0.2612	1112.8704	0.098326	-399.492133	-399.483411	-399.482467	-399.52596	31.841	
O	-0.087905143	 0.0168410855	 0.0631433673	-0.342432
C	-0.0419257747	 1.2117218048	 0.049624822	 0.441572
N	-0.9962752274	 2.1922844928	-0.027866141	-0.317317
C	-0.0895673145	 3.3430943983	 0.0885422876	-0.184287
C	-0.2638369209	 4.1663135898	 1.2702619383	 0.374588
C	-0.4253965818	 4.8669162342	 2.2325723737	-0.442942
C	 1.1009491788	 2.2894222171	 0.0859683417	-0.382429
C	 2.010571617	 2.2564966265	 1.2021417258	 0.361273
C	 2.7684714558	 2.2138760875	 2.1333121931	-0.440438
H	-2.0037142644	 2.145518843	 0.0188313984	 0.262786
H	-0.0857663596	 3.9699309011	-0.8099882204	 0.120278
H	-0.5602596616	 5.4779986791	 3.0909815888	 0.207893
H	 1.63965703	 2.312984865	-0.8661881559	 0.137673
H	 3.4363752564	 2.1728869153	 2.9578795007	 0.203783
54.3861	103.8476	131.9582	194.9769	246.941	363.5796	392.8218	423.9542	497.698	517.9503	597.0243	621.7579	641.8592	655.0652	667.4971	705.7471	774.4476	795.19	907.009	969.7204	1061.0335	1097.5135	1128.4293	1177.1898	1243.0352	1314.1884	1369.2267	1373.3992	1914.7433	2241.4197	2244.1742	3042.7459	3071.3237	3501.5607	3503.8642	3612.9009
O=C1NC(C#C)C1C#C	O=C1N[C@@H](C#C)[C@H]1C#C	
InChI=1S/C7H5NO/c1-3-5-6(4-2)8-7(5)9/h1-2,5-6H,(H,8,9)	InChI=1S/C7H5NO/c1-3-5-6(4-2)8-7(5)9/h1-2,5-6H,(H,8,9)/t5-,6+/m1/s1
