18
gdb 125195	3.11254	1.54429	1.05991	1.969	79.61	-0.1912	0.0253	0.2165	1124.9248	0.151109	-398.147479	-398.139473	-398.138528	-398.180147	30.195	
C	-0.0572092111	 1.524735953	 0.1035414942	-0.512602
C	 0.0129318636	 0.0439197602	-0.0640785886	 0.227868
C	 0.0024616422	-0.7798551014	-1.1674953964	 0.15016
N	-0.0078129923	-0.7018657325	-2.5815392849	-0.426571
C	 0.3010587391	-2.1002279979	-3.0202378729	-0.167834
C	 0.0742987844	-3.0730886287	-1.8098142483	-0.350832
C	 0.0957141195	-2.0909433619	-0.6757998964	 0.32872
N	 0.157392083	-2.1406772213	 0.6449228194	-0.337255
N	 0.0904872151	-0.8302121804	 0.995652268	-0.263951
H	 0.6478717866	 1.8788242405	 0.8638713534	 0.129472
H	 0.1972783875	 2.0136288536	-0.8402327173	 0.146487
H	-1.0571146711	 1.8682576641	 0.397132867	 0.133469
H	-0.9078917883	-0.4017396857	-2.9410733221	 0.226907
H	-0.2959688867	-2.3626616615	-3.896814888	 0.102837
H	 1.3553007808	-2.1355683724	-3.3159976628	 0.11764
H	-0.8899391139	-3.5934075613	-1.8737381719	 0.112404
H	 0.8542668108	-3.8371582295	-1.7606850791	 0.119712
H	 0.1481075308	-0.589431887	 1.9703717966	 0.263368
91.3275	126.9845	162.9443	232.5352	285.5075	312.4218	417.6965	512.5821	582.4797	619.2967	644.4407	684.8491	752.6503	757.8862	805.0147	895.1108	928.2367	982.8509	995.1706	1056.3241	1060.4583	1079.1934	1159.7513	1186.8065	1213.439	1249.0806	1276.8084	1298.2153	1364.4427	1400.5141	1416.0708	1450.4853	1480.7472	1484.5801	1489.3917	1503.0546	1515.0664	1532.1372	1668.8711	3021.4162	3023.7909	3040.5459	3073.6528	3090.9309	3104.4886	3118.6782	3506.6596	3673.7843
CC1=C2NCCC2=NN1	Cc1c2NCCc2n[nH]1	
InChI=1S/C6H9N3/c1-4-6-5(9-8-4)2-3-7-6/h7H,2-3H2,1H3,(H,8,9)	InChI=1S/C6H9N3/c1-4-6-5(9-8-4)2-3-7-6/h7H,2-3H2,1H3,(H,8,9)
