18
gdb 110705	2.6458	1.50357	1.22846	1.6577	77.91	-0.2372	0.0004	0.2376	1086.2575	0.147188	-401.913819	-401.905703	-401.904759	-401.94664	31.031	
C	 0.0839826406	 1.6192800861	 0.0077687984	-0.383854
C	 0.1005123442	 0.0939781063	 0.0745353448	-0.140478
N	 0.6436824225	-0.4763040011	-1.1678925107	-0.069156
C	-0.3056440324	-0.5391689504	-2.340968413	-0.174138
C	 0.5497805899	-1.2526799907	-3.3578513038	-0.074449
C	 1.1722647537	-2.2003338126	-2.6347312532	-0.079555
C	 0.6429219309	-1.9809410157	-1.2397293262	-0.168192
C	-0.9061436975	-1.8149859468	-1.5917249838	 0.400129
O	-1.9562420095	-2.2347975774	-1.2404808172	-0.303849
H	 1.0829538453	 2.0056961901	-0.211914541	 0.129567
H	-0.5970147629	 1.9792486833	-0.7702067236	 0.119919
H	-0.2535310357	 2.0378079198	 0.960552735	 0.118572
H	 0.7683237193	-0.2315039199	 0.8804429287	 0.107619
H	-0.9064030663	-0.282710613	 0.3241169806	 0.105814
H	-0.8789728388	 0.3455596765	-2.6061503062	 0.090365
H	 0.5630441945	-1.0673809386	-4.4213536697	 0.116404
H	 1.8300431371	-2.9965473467	-2.9492146849	 0.116663
H	 1.024900985	-2.5433027295	-0.3903690542	 0.088619
83.4607	111.0174	180.6942	208.2609	298.2791	359.6188	407.3707	485.462	534.6626	578.0691	660.7532	763.4524	774.6248	799.9577	837.7408	888.5572	907.2998	922.5156	951.1838	968.8368	989.1781	1011.5234	1094.4024	1102.012	1127.5219	1148.8663	1162.539	1187.088	1231.3954	1288.0662	1314.9949	1336.5491	1395.3667	1414.2853	1490.8703	1494.3549	1512.421	1589.1435	1898.5713	2958.5936	3041.2611	3054.0241	3108.6367	3122.6734	3153.1541	3162.8802	3236.1352	3259.855
CCN1C2C=CC1C2=O	CCN1[C@H]2C=C[C@@H]1C2=O	
InChI=1S/C7H9NO/c1-2-8-5-3-4-6(8)7(5)9/h3-6H,2H2,1H3	InChI=1S/C7H9NO/c1-2-8-5-3-4-6(8)7(5)9/h3-6H,2H2,1H3/t5-,6+
