16
gdb 54485	3.29454	1.45045	1.19646	3.26	68.74	-0.2492	-0.009	0.2402	1025.5253	0.12623	-434.082478	-434.074895	-434.07395	-434.114667	29.201	
N	 0.0777718444	 0.9960817086	 0.7645548192	-0.538026
C	-0.0187096497	 0.022621071	-0.1850654607	 0.311457
O	 0.8071459031	-0.1760979412	-1.0552490797	-0.358059
C	-1.2800547495	-0.7984414237	-0.1130442565	 0.218517
C	-2.6183696077	-0.1484976732	-0.0882701008	-0.262697
N	-2.0781538834	-0.7643054799	 1.1478442923	-0.183804
C	-2.491804138	-2.1346954487	 1.265215091	 0.034834
N	-2.0753500731	-2.9811671472	 0.4165826015	-0.196827
C	-1.227002895	-2.2626570878	-0.5517632094	-0.244124
H	 0.9491563086	 1.4984950757	 0.823104539	 0.262977
H	-0.4973416668	 0.9195278807	 1.5897695151	 0.273041
H	-2.6862552217	 0.9341296242	-0.0603351263	 0.136568
H	-3.4394222306	-0.6609254407	-0.5835157576	 0.137623
H	-3.133646404	-2.3921782651	 2.1024850561	 0.133533
H	-1.5960181144	-2.4350241355	-1.5671346525	 0.131369
H	-0.2017174022	-2.6432419772	-0.5150260608	 0.143618
73.1602	161.6506	202.7251	330.9513	338.427	411.5578	440.1112	491.8036	538.9814	597.2966	647.9671	746.9794	749.9368	817.075	862.5552	915.5332	939.5866	946.2209	968.2318	1019.2019	1045.2945	1101.3171	1127.1564	1147.4512	1183.4397	1214.683	1302.1082	1309.7662	1338.6208	1409.6884	1485.5235	1502.7613	1602.2613	1685.4687	1797.2564	3061.2067	3095.5902	3113.3435	3191.3428	3211.1322	3574.0193	3709.12
NC(=O)C12CN1C=NC2	NC(=O)[C@]12CN1C=NC2	
InChI=1S/C5H7N3O/c6-4(9)5-1-7-3-8(5)2-5/h3H,1-2H2,(H2,6,9)	InChI=1S/C5H7N3O/c6-4(9)5-1-7-3-8(5)2-5/h3H,1-2H2,(H2,6,9)/t5-,8?/m0/s1
