21
gdb 37943	3.09818	1.65881	1.28851	0.3013	87.97	-0.2296	0.0175	0.2471	1045.8514	0.186732	-349.912166	-349.905244	-349.9043	-349.943146	29.384	
C	-0.0300255072	 1.6473124922	 0.0170054925	-0.231813
C	 1.4572399303	 1.208968278	-0.0958771267	-0.065205
C	 1.1597018828	 0.2213706122	 1.0796530238	 0.055081
C	 2.0788652173	-0.9478778938	 1.4600434945	-0.251736
C	 1.927549496	-2.2421456963	 0.6481209636	-0.257319
C	 2.2136669732	-2.0702174452	-0.8188743447	-0.070753
C	 1.8044999632	-1.0348183666	-1.5508670845	-0.087361
C	 0.9626016658	 0.1251007733	-1.1200048354	 0.012359
C	-0.0447827486	 0.093126903	 0.0879164868	-0.086523
H	-0.3156267859	 2.1791700214	 0.9280955194	 0.087145
H	-0.4766143873	 2.1005353072	-0.8716559998	 0.08695
H	 2.3322689874	 1.8535586637	-0.2056354035	 0.064459
H	 0.8876747249	 0.7608624741	 1.9944267591	 0.059631
H	 3.122837203	-0.6124898169	 1.4061775814	 0.099757
H	 1.8954274153	-1.1898484288	 2.5138723503	 0.091797
H	 2.5977311013	-3.0012204913	 1.0667101146	 0.095102
H	 0.91076044	-2.6382668269	 0.7854967626	 0.110217
H	 2.7972930184	-2.8497138358	-1.3032873146	 0.08243
H	 2.0833467536	-1.0152817419	-2.6029983547	 0.079132
H	 0.5202520809	 0.5823426837	-2.0122080061	 0.059732
H	-0.9239602345	-0.5470573852	 0.1855997614	 0.066921
158.4346	176.0721	322.0869	360.1608	371.0945	488.7284	518.2589	626.6776	692.29	711.9772	757.2098	800.7798	834.9437	870.7907	890.3028	895.0657	923.2959	948.1587	994.8144	1002.9214	1023.2026	1030.365	1052.7502	1066.7172	1086.2658	1099.9258	1140.3246	1156.597	1169.9875	1197.6399	1219.9428	1228.2138	1248.8504	1259.8111	1269.1443	1299.1993	1354.3982	1385.245	1408.0763	1432.447	1447.9696	1479.6573	1488.1823	1522.605	1731.4906	3001.8246	3012.5168	3027.6015	3032.5513	3051.9443	3055.5279	3058.1868	3084.2149	3091.7734	3118.101	3130.639	3157.8775
C1C2C3CCC=CC2C13	C1[C@H]2[C@@H]3CCC=C[C@H]2[C@H]13	
InChI=1S/C9H12/c1-2-4-7-8-5-9(7)6(8)3-1/h1,3,6-9H,2,4-5H2	InChI=1S/C9H12/c1-2-4-7-8-5-9(7)6(8)3-1/h1,3,6-9H,2,4-5H2/t6-,7+,8-,9+
