19
gdb 82056	2.74365	1.46441	1.242	2.9556	74.18	-0.2427	0.0597	0.3023	1071.582	0.159516	-422.965547	-422.957462	-422.956518	-422.998332	31.141	
O	 0.2927593469	 1.3674330064	-0.1245744147	-0.428249
C	 0.0931652189	-0.0146490173	 0.0454998562	 0.062358
C	 0.3167118764	-0.6467842778	 1.4168828814	-0.086878
C	-0.7657954411	-0.2320639063	 2.3807433409	-0.30767
C	-1.0797832734	-1.2802256839	 1.3539261731	-0.124768
C	-1.3647595627	-0.6049407175	 0.0162910879	 0.260776
C	-2.5984978617	 0.2765987116	-0.2474160357	-0.133293
O	-2.953871962	-0.4904656071	-1.4174569239	-0.275146
C	-1.8477672555	-1.3905260273	-1.2159965863	-0.150755
H	 0.0125212493	 1.8125714203	 0.6822186239	 0.282616
H	 0.6986373988	-0.5006224797	-0.7258361652	 0.093926
H	 1.2480006061	-1.0743228692	 1.7678828039	 0.092359
H	-0.6308125116	-0.586877144	 3.3971032383	 0.121118
H	-1.2381650288	 0.7476328079	 2.3255792527	 0.102897
H	-1.3753534472	-2.2872470822	 1.6224245361	 0.09355
H	-3.3777659717	 0.2390487741	 0.5255668826	 0.095669
H	-2.3752574206	 1.3219618259	-0.4954674245	 0.104025
H	-1.1605808998	-1.4016437759	-2.0729494421	 0.101197
H	-2.1839824705	-2.4174566081	-1.0161157947	 0.096268
78.8621	118.9347	212.187	236.2393	267.6532	297.2555	414.7227	449.2885	550.4139	581.7444	722.4478	795.0637	806.7699	854.8238	894.6295	934.8917	966.6203	977.9494	990.4133	993.6845	1022.5721	1040.4537	1062.3676	1083.6165	1117.17	1134.3744	1151.9619	1165.5134	1169.4357	1207.0849	1223.123	1263.9669	1275.5395	1310.0503	1323.2686	1360.5387	1384.1318	1427.5716	1494.8339	1503.6846	1529.7578	2991.0518	3005.9167	3035.3585	3051.1775	3066.0765	3095.2893	3180.4225	3185.8586	3200.0468	3812.8349
OC1C2CC2C11COC1	O[C@H]1[C@H]2C[C@H]2C21COC2	
InChI=1S/C7H10O2/c8-6-4-1-5(4)7(6)2-9-3-7/h4-6,8H,1-3H2	InChI=1S/C7H10O2/c8-6-4-1-5(4)7(6)2-9-3-7/h4-6,8H,1-3H2/t4-,5+,6-/m0/s1
