18
gdb 89556	5.72564	0.84621	0.83943	3.0244	73.06	-0.2508	0.0342	0.285	1373.3081	0.147164	-439.094703	-439.08628	-439.085336	-439.128023	32.368	
O	 0.7993543595	 0.4516316045	-0.8790892535	-0.431344
C	 0.0142846195	-0.2999806393	 0.0061786059	 0.181501
C	 0.1407044216	-0.081862608	 1.5399052878	-0.340102
C	-1.3833253756	-0.3381414999	 1.6390400024	 0.413364
C	-1.5096713512	-0.020243628	 0.1286884171	-0.340225
C	-1.9040908617	-1.7002432023	 2.1885766293	-0.469844
C	-2.7280097778	-0.852538668	 3.1893768069	 0.437559
O	-3.5000487771	-1.0666529555	 4.0832671341	-0.359083
N	-2.2207305813	 0.3054499404	 2.6464407929	-0.389024
H	 0.6640286058	 1.3852302016	-0.684786835	 0.276807
H	 0.1986019766	-1.345798009	-0.2550088337	 0.102225
H	 0.8173164445	-0.7190923867	 2.1138867337	 0.110667
H	 0.372964101	 0.9678562228	 1.7569658849	 0.094154
H	-1.7145459251	 1.0458507207	-0.0278342388	 0.0941
H	-2.2082183282	-0.6059754931	-0.4732017609	 0.110692
H	-2.5096805703	-2.2872429971	 1.4954868815	 0.132372
H	-1.1518749564	-2.3384392708	 2.6560362206	 0.132378
H	-2.3791547238	 1.2767064377	 2.8736932448	 0.243802
62.0934	80.2808	259.2155	287.9319	304.9603	343.288	376.5064	401.1448	476.8115	481.6557	513.9384	564.6478	695.9942	778.5123	817.6953	858.0171	869.9305	956.9085	972.737	993.1991	1030.9216	1053.0364	1069.784	1096.3185	1153.208	1182.143	1188.6081	1208.2925	1209.164	1265.1483	1275.5391	1294.469	1334.8894	1393.6043	1437.1507	1457.9675	1462.1378	1491.3241	1899.9294	3033.082	3040.078	3075.9265	3082.7268	3106.7841	3111.4725	3141.7042	3601.028	3805.5487
OC1CC2(C1)CC(=O)N2	O[C@H]1C[C@@]2(C1)CC(=O)N2	
InChI=1S/C6H9NO2/c8-4-1-6(2-4)3-5(9)7-6/h4,8H,1-3H2,(H,7,9)	InChI=1S/C6H9NO2/c8-4-1-6(2-4)3-5(9)7-6/h4,8H,1-3H2,(H,7,9)/t4-,6+
