21
gdb 29698	2.37147	1.52006	0.94625	1.4371	88.71	-0.172	0.059	0.231	1282.9684	0.181932	-383.314782	-383.304282	-383.303338	-383.35029	37.646	
C	-0.0801227809	 1.4340956342	 0.0182840537	-0.346469
N	-0.0121849311	-0.0102305972	 0.0165838644	-0.060684
C	 0.0350604846	-0.7977154755	-1.1151852831	 0.249578
N	-0.0143285287	-0.1931018047	-2.3925210233	-0.608837
C	 0.0591073647	-2.112819898	-0.7159370641	-0.322914
C	 0.0316657699	-2.1372679454	 0.7112956377	 0.221895
C	 0.0420142871	-3.3735088487	 1.5604990217	-0.504246
C	 0.000561435	-0.8251669708	 1.1395298412	 0.188566
C	-0.0180537541	-0.2427881547	 2.5143977196	-0.507091
H	 0.8736668017	 1.891847742	 0.3100736657	 0.122407
H	-0.3352152561	 1.7621183831	-0.9904830076	 0.155302
H	-0.8521028066	 1.7831209462	 0.7105021451	 0.131305
H	 0.9038805912	 0.0922031602	-2.723080788	 0.240046
H	-0.3911316396	-0.8426641809	-3.0720273819	 0.244843
H	 0.104426687	-2.9689908957	-1.3735081403	 0.074091
H	 0.8859756559	-4.0277407652	 1.3104295907	 0.117847
H	 0.1193555457	-3.1380770088	 2.6257722526	 0.113263
H	-0.8701608758	-3.9685331163	 1.4261255563	 0.119158
H	 0.8235282602	 0.4399205705	 2.6913615486	 0.119917
H	-0.9365531615	 0.3221444675	 2.7238788088	 0.121383
H	 0.0465286914	-1.0380727219	 3.2598573021	 0.130641
57.472	104.2864	119.8737	149.4523	183.5123	196.6895	232.2533	279.006	291.6327	318.5419	338.5477	533.5201	580.6387	599.847	637.5533	651.9272	730.4516	746.4102	834.0331	837.5473	989.5859	1001.3514	1053.5858	1062.6144	1114.1205	1148.0825	1154.0605	1189.4319	1207.3554	1239.6338	1367.2842	1407.5443	1425.9189	1432.4318	1442.4313	1475.8201	1478.3712	1483.3334	1495.2672	1500.1531	1505.91	1520.0345	1562.8559	1632.7496	1657.2625	3004.4883	3016.8092	3018.6718	3042.6818	3060.1033	3081.9203	3100.9987	3122.8384	3142.0709	3229.9906	3479.7221	3588.2605
CN1C(N)=CC(C)=C1C	Cn1c(N)cc(C)c1C	
InChI=1S/C7H12N2/c1-5-4-7(8)9(3)6(5)2/h4H,8H2,1-3H3	InChI=1S/C7H12N2/c1-5-4-7(8)9(3)6(5)2/h4H,8H2,1-3H3
