20
gdb 6214	3.70435	1.45324	1.37078	1.3589	76.61	-0.243	0.022	0.265	1029.7938	0.176079	-349.02428	-349.015665	-349.014721	-349.056944	33.249	
C	 0.0441090219	 1.614509162	-0.0324776816	-0.397703
C	 0.0395146567	 0.0823238578	 0.0282551608	-0.014874
C	 0.7375260785	-0.6000399755	-1.1771159047	-0.261301
C	 1.5020496151	-1.8265858737	-0.6200303924	 0.373105
C	 0.7832322789	-3.1577576268	-0.878932563	-0.438686
O	 2.7906829792	-1.8464735564	-1.2476435336	-0.473265
C	 1.5811597102	-1.5083618239	 0.8622013539	-0.131256
C	 0.7942081021	-0.4936072377	 1.206816704	-0.068497
H	 1.0689926611	 1.99908169	-0.0716320651	 0.119665
H	-0.4854502766	 1.9741782642	-0.9210382667	 0.113511
H	-0.4459484207	 2.0487096063	 0.8457989979	 0.109611
H	-1.0099242077	-0.2449514714	 0.084819415	 0.076896
H	 0.0433394567	-0.8677734141	-1.9783260984	 0.091416
H	 1.4862024131	 0.0769249389	-1.5993167618	 0.115237
H	 0.7513141865	-3.3641978583	-1.95342085	 0.121701
H	 1.3030891936	-3.9880531065	-0.3844482705	 0.101224
H	-0.2408867657	-3.13608094	-0.4934950389	 0.120094
H	 3.2393027064	-2.6548295518	-0.9770868519	 0.271117
H	 2.1974673281	-2.094333516	 1.5376086205	 0.082504
H	 0.6672162527	-0.1098377371	 2.2146923168	 0.089501
61.173	185.177	234.2836	259.3154	269.236	281.7899	317.6026	372.7335	408.3471	444.7439	548.5464	594.6789	695.165	783.6732	810.1262	849.7139	894.7798	928.1045	945.0519	964.3821	976.8432	1020.8604	1068.2421	1092.0057	1120.8196	1145.9007	1170.3034	1189.5634	1257.0289	1295.2397	1311.7345	1341.3484	1360.1193	1389.0949	1401.426	1409.5558	1480.7468	1491.0447	1494.005	1497.18	1498.7728	1689.1521	2981.3295	3020.6538	3026.7807	3055.7445	3087.6442	3095.2341	3099.0813	3104.4391	3111.1832	3163.5772	3190.1124	3804.3182
CC1CC(C)(O)C=C1	C[C@H]1C[C@@](C)(O)C=C1	
InChI=1S/C7H12O/c1-6-3-4-7(2,8)5-6/h3-4,6,8H,5H2,1-2H3	InChI=1S/C7H12O/c1-6-3-4-7(2,8)5-6/h3-4,6,8H,5H2,1-2H3/t6-,7+/m1/s1
