15
gdb 28234	4.9653	1.24343	1.01003	1.9605	69.46	-0.1613	0.0384	0.1997	1110.0587	0.114829	-453.931645	-453.924082	-453.923138	-453.963621	28.71	
N	 0.1303145031	 1.3689081738	 0.0577036476	-0.595949
C	-0.0274824971	-0.025192851	-0.044068876	 0.301021
C	-1.1509726506	-0.8295002689	 0.0381698422	-0.388645
C	-0.6452231675	-2.1499727306	 0.1792734294	 0.276004
C	 0.7087044049	-2.1074011746	 0.1669415597	 0.252742
N	 1.1254784693	-0.8177784961	-0.0439831422	-0.392544
O	 1.2588864062	-3.3317165647	-0.1505090452	-0.274343
C	 0.1398593218	-4.1890206646	 0.150231525	 0.007154
O	-1.0688005987	-3.4468977096	-0.0518880306	-0.273057
H	 0.3917696779	 1.7983808209	-0.8251877378	 0.246748
H	-0.7193082275	 1.8099979553	 0.3852388434	 0.250137
H	-2.1749724874	-0.4920923785	 0.0179780835	 0.099043
H	 2.0173096784	-0.4347582176	 0.2248858619	 0.263682
H	 0.1581333833	-5.0531276073	-0.514946396	 0.129378
H	 0.204553954	-4.4840685365	 1.210429975	 0.098629
101.7391	155.095	246.0183	286.5412	300.6229	329.365	464.9122	525.1274	566.8879	617.236	634.4322	728.9855	748.8688	756.8556	789.7884	860.6004	908.2095	995.7659	1053.661	1101.9411	1139.0126	1144.0287	1194.8793	1244.9189	1266.5626	1388.7221	1417.3701	1452.7168	1510.3321	1520.706	1557.5458	1640.7439	1658.5678	2965.4447	3126.5276	3254.1628	3491.7697	3606.6436	3650.7699
NC1=CC2=C(N1)OCO2	Nc1cc2c([nH]1)OCO2	
InChI=1S/C5H6N2O2/c6-4-1-3-5(7-4)9-2-8-3/h1,7H,2,6H2	InChI=1S/C5H6N2O2/c6-4-1-3-5(7-4)9-2-8-3/h1,7H,2,6H2
