15
gdb 17771	6.75743	1.17131	1.12792	1.5802	64.45	-0.2538	0.016	0.2697	1047.3623	0.118468	-399.715282	-399.708253	-399.707308	-399.747656	25.562	
N	-0.0221164128	 1.3367965468	 0.0745913323	-0.438968
C	 0.0074913359	 0.0770774771	 0.0547088565	 0.124747
O	-1.1358270716	-0.6197058461	-0.1263975053	-0.199768
C	-1.0656123018	-2.0210695861	-0.0266958252	 0.166311
C	-1.7812515577	-2.7553200817	 1.1449006191	 0.00628
C	-3.1515568654	-2.3348046636	 0.5622801446	-0.227337
C	-2.2511972573	-2.8329138638	-0.5944609781	 0.002776
O	-1.795185864	-3.94700435	 0.2687497032	-0.307555
H	 0.918811753	 1.7047882722	 0.198183769	 0.232614
H	 0.8943303187	-0.5624059836	 0.1613734184	 0.091684
H	-0.0776876386	-2.4172430412	-0.2761917373	 0.101665
H	-1.467955016	-2.8918067181	 2.1797288546	 0.101469
H	-3.9777601253	-2.9993160552	 0.8157977517	 0.113121
H	-3.4145021977	-1.2769036745	 0.5844038211	 0.129208
H	-2.4983034493	-3.0617953523	-1.6305543746	 0.103753
39.5523	107.9998	166.0027	329.7971	385.9309	451.4442	565.0579	705.2227	742.8084	822.9607	828.603	877.128	901.4561	925.9705	958.0908	1014.5358	1033.0908	1044.6684	1079.5486	1105.0483	1127.2411	1172.7251	1176.2767	1199.5095	1223.993	1260.1655	1276.5488	1303.912	1372.3651	1426.1203	1483.6405	1748.9192	3026.0891	3085.1486	3087.7588	3125.1435	3132.8235	3168.3463	3519.8977
N=COC1C2CC1O2	[NH][CH]O[C@H]1[C@H]2C[C@@H]1O2	
InChI=1S/C5H7NO2/c6-2-7-5-3-1-4(5)8-3/h2-6H,1H2	InChI=1S/C5H7NO2/c6-2-7-5-3-1-4(5)8-3/h2-6H,1H2/t3-,4+,5+
