14
gdb 129107	5.03753	1.32179	1.05387	0.9903	68.93	-0.2229	0.0003	0.2232	1046.6716	0.10445	-432.885371	-432.878786	-432.877842	-432.916426	25.636	
N	-0.0020645196	 1.2358275384	 0.0072385197	-0.511476
C	-0.0285536031	-0.0162006782	 0.0008152476	 0.398075
C	-1.2776502959	-0.9177751631	 0.0029883354	-0.459465
C	-0.6543944798	-2.2818300415	-0.0077693429	 0.132395
C	 0.6965557742	-2.0933782261	-0.0143605926	 0.487647
N	 1.3204744623	-3.2787510301	-0.0242303509	-0.352791
N	 0.3982833971	-4.2930125589	-0.0244426993	-0.230934
C	-0.790027855	-3.6858077512	-0.0145341651	-0.149958
O	 1.1478685367	-0.8129610746	-0.0100807253	-0.262101
H	 0.9530488308	 1.5952003424	 0.0037661613	 0.238168
H	-1.882476409	-0.6916155709	 0.887464074	 0.154367
H	-1.8923373225	-0.6822456743	-0.872195477	 0.154372
H	 2.3015418922	-3.4961303272	-0.0308772668	 0.282792
H	-1.6836530484	-4.2922401546	-0.012765598	 0.11891
103.5577	223.8894	309.4099	341.9176	446.8054	533.9114	534.6117	552.0109	665.8326	708.9388	738.0257	788.7122	837.959	884.0944	893.1674	973.5005	974.1235	978.8511	1058.3019	1149.0415	1161.7172	1226.7194	1253.198	1264.83	1322.8786	1413.3349	1455.1492	1471.984	1585.0276	1631.456	1808.1297	3049.3253	3079.5856	3247.4647	3491.8221	3689.063
N=C1CC2=C(NN=C2)O1	[NH][C]1Cc2c([nH]nc2)O1	
InChI=1S/C5H5N3O/c6-4-1-3-2-7-8-5(3)9-4/h2,6H,1H2,(H,7,8)	InChI=1S/C5H5N3O/c6-4-1-3-2-7-8-5(3)9-4/h2,6H,1H2,(H,7,8)
