18
gdb 62734	2.49878	1.53001	1.27284	3.1822	72.88	-0.2331	-0.0003	0.2329	1065.4195	0.145709	-439.077735	-439.068663	-439.067719	-439.110824	34.448	
C	 0.0466765177	 1.5179042362	 0.0489105114	-0.462645
C	 0.0759811905	 0.001460423	 0.0508380202	 0.254499
C	-1.1875270925	-0.6360730687	-0.505566091	-0.447413
C	 1.3414670956	-0.7931728637	-0.2060727893	-0.153119
N	 2.5334782281	-0.171975294	 0.3747187171	-0.340561
C	 1.977022181	-0.1242693121	 1.6721025951	 0.320652
O	 2.4049587933	 0.2921652503	 2.7109187527	-0.341756
C	 0.7001689632	-0.8111019347	 1.1920520795	 0.211782
O	-0.0550901264	-1.7318684288	 1.8721752398	-0.448135
H	 0.970617733	 1.9570758078	 0.4323809763	 0.123455
H	-0.1115366986	 1.8953183039	-0.9677653887	 0.118061
H	-0.7758307815	 1.8847471472	 0.6717359296	 0.131574
H	-1.3784728834	-0.2640339221	-1.5178178504	 0.117841
H	-1.1142034697	-1.7251652439	-0.5430116278	 0.127969
H	-2.0535193552	-0.3863463819	 0.1155695259	 0.132657
H	 1.4312941376	-1.5972112944	-0.9253293908	 0.112357
H	 2.997103749	 0.6331029777	-0.0319964292	 0.242682
H	 0.5356499883	-2.3742523016	 2.2817012796	 0.300101
123.0344	177.7063	186.6017	195.4028	244.2785	272.2171	303.154	326.5894	355.7987	410.1048	512.9781	558.4349	633.6306	650.5875	708.9392	748.2273	781.9201	908.8605	919.8724	942.6514	968.4656	1002.7053	1042.7605	1064.6091	1131.7472	1158.4109	1216.8037	1276.4332	1300.3332	1317.8545	1324.9658	1406.9316	1423.4228	1444.0192	1478.1113	1487.6127	1499.8129	1510.7879	1890.0656	3033.1294	3039.1859	3094.3492	3102.0316	3119.6866	3125.469	3198.6117	3542.7923	3796.767
CC1(C)C2NC(=O)C12O	CC1(C)[C@H]2NC(=O)[C@@]12O	
InChI=1S/C6H9NO2/c1-5(2)3-6(5,9)4(8)7-3/h3,9H,1-2H3,(H,7,8)	InChI=1S/C6H9NO2/c1-5(2)3-6(5,9)4(8)7-3/h3,9H,1-2H3,(H,7,8)/t3-,6-/m1/s1
