16
gdb 50245	2.80914	1.59975	1.41946	3.2482	67.86	-0.2507	-0.0282	0.2225	955.1376	0.125287	-437.892803	-437.885485	-437.884541	-437.925496	27.056	
O	-0.8391907568	 1.383318246	-0.4069892269	-0.238401
C	 0.0746437635	 1.2274278549	 0.3608362279	 0.157104
C	 1.4247419923	 1.8913826444	 0.2289453352	-0.130173
C	 1.6073222736	 2.9283194167	-0.9156034721	-0.250796
C	 1.8992254858	 4.0371880807	 0.1348136707	-0.010865
N	 0.8048470393	 4.9987355749	 0.3199046397	-0.251696
C	 0.1514745539	 4.5940301634	 1.3259894569	 0.117477
O	 0.5534558013	 3.4764982008	 2.0009385386	-0.225702
C	 1.7145709317	 3.0038428155	 1.2882349879	 0.062963
H	-0.0280318791	 0.5671319238	 1.2504079301	 0.085092
H	 2.1904479115	 1.1079771978	 0.2646554232	 0.099562
H	 2.4321807052	 2.7111703462	-1.5964155155	 0.109869
H	 0.6959362504	 3.1006978117	-1.4898799486	 0.139987
H	 2.8566885061	 4.5525825591	 0.0402692451	 0.089353
H	-0.733808676	 5.0636426194	 1.7388731327	 0.14963
H	 2.5064775375	 2.8090724846	 2.0116945352	 0.096598
53.407	86.182	204.3553	257.0566	319.7105	461.0496	587.7808	616.4027	654.685	760.611	799.4825	853.2804	864.6793	908.128	916.536	944.9868	962.7101	1014.0621	1051.2639	1083.8283	1087.7798	1096.801	1134.0213	1185.5945	1240.5703	1256.9799	1276.0166	1300.2465	1317.7286	1332.9857	1357.1328	1423.2201	1476.3154	1694.0501	1827.5069	2886.4849	3049.0531	3080.5451	3091.1118	3111.356	3143.6961	3225.0554
O=CC1CC2N=COC12	O=C[C@H]1C[C@H]2N=CO[C@@H]12	
InChI=1S/C6H7NO2/c8-2-4-1-5-6(4)9-3-7-5/h2-6H,1H2	InChI=1S/C6H7NO2/c8-2-4-1-5-6(4)9-3-7-5/h2-6H,1H2/t4-,5-,6+/m1/s1
