20
gdb 80769	3.282	0.97954	0.90764	1.981	80.21	-0.2363	-0.0224	0.2139	1349.9416	0.169623	-403.102005	-403.092999	-403.092055	-403.136698	33.151	
C	-0.6093449073	 1.1203391328	-0.0590103687	-0.317327
N	-0.1243517312	-0.2061732951	 0.2868522064	-0.064247
C	 1.1437562558	-0.7403379288	-0.134842257	-0.040728
C	 2.2931300277	 0.2876237571	-0.0624497978	-0.283596
C	 2.0243742694	 0.4341157393	 1.4735332693	 0.004003
C	 1.8603221295	 1.8097309945	 2.1331750792	-0.305977
C	 3.1882828364	 2.5247843867	 2.2463540509	 0.163632
O	 3.4260126017	 3.6201683401	 1.8075055126	-0.238476
C	 0.8187055554	-0.523661416	 1.3302656505	-0.08478
H	 0.1676402265	 1.8759120249	-0.2323601909	 0.11257
H	-1.2038112448	 1.0396515031	-0.9749222941	 0.124943
H	-1.2669013689	 1.4789172509	 0.7387206584	 0.124891
H	 1.1602190782	-1.6604166748	-0.709439179	 0.095683
H	 3.2705969623	-0.1475437924	-0.2785518915	 0.110345
H	 2.1745362319	 1.1862539833	-0.6746630387	 0.112584
H	 2.8117441202	-0.1092990517	 2.010181442	 0.084915
H	 1.161973468	 2.4589662083	 1.6030507491	 0.122938
H	 1.4789424099	 1.6614031928	 3.1546481657	 0.118975
H	 3.9760421853	 1.9392734974	 2.7794452754	 0.06834
H	 0.5121348441	-1.2372159324	 2.0894354182	 0.091312
46.3652	65.5602	131.2363	196.6781	241.3003	261.043	322.0719	375.8538	435.8722	500.1913	608.7839	701.0669	735.7046	804.6001	818.3998	873.4518	885.3905	921.3756	974.1679	1002.0511	1026.8938	1044.6926	1075.6085	1100.562	1112.0546	1147.4145	1168.6303	1186.2036	1217.2562	1224.2419	1255.8167	1259.6355	1281.3895	1301.2993	1382.7888	1400.6778	1427.438	1452.8465	1459.0832	1480.0962	1503.9988	1510.7735	1835.4186	2840.6825	3008.9389	3012.2673	3029.2554	3063.7015	3075.4223	3105.0854	3117.6809	3127.7538	3150.5503	3168.5746
CN1C2CC(CC=O)C12	CN1[C@H]2C[C@@H](CC=O)[C@@H]12	
InChI=1S/C7H11NO/c1-8-6-4-5(2-3-9)7(6)8/h3,5-7H,2,4H2,1H3	InChI=1S/C7H11NO/c1-8-6-4-5(2-3-9)7(6)8/h3,5-7H,2,4H2,1H3/t5-,6+,7-,8?/m1/s1
