16
gdb 80306	2.55399	1.51487	1.2497	2.8852	64.43	-0.2394	0.0213	0.2607	1024.242	0.123571	-475.036166	-475.027757	-475.026813	-475.069147	31.821	
O	-0.0036652064	 1.3907067082	-0.060494321	-0.426996
C	-0.0589171749	 0.0011230764	-0.0419733865	 0.037289
C	-0.4804724289	-0.7553688138	 1.2105620907	-0.135684
N	-1.1386704318	 0.0243271008	 2.2149344395	-0.314931
C	-2.3740020829	 0.5223605473	 1.8476313077	 0.400192
O	-3.0913602171	 1.2016460053	 2.5417668738	-0.361927
C	-2.6194000933	 0.06953955	 0.3973717511	-0.418968
C	-1.3876166819	-0.7305895336	-0.0000232718	 0.328247
O	-1.5426318702	-1.9112372261	-0.7233070957	-0.462369
H	-0.0182857811	 1.7035827534	 0.8522855972	 0.295035
H	 0.7108096383	-0.4774728516	-0.6436328805	 0.10848
H	 0.0375270909	-1.6542554484	 1.5227158715	 0.11929
H	-0.7600561066	 0.2036839673	 3.1312083926	 0.257623
H	-3.5113494712	-0.5618664041	 0.3589893679	 0.14194
H	-2.791927774	 0.9528160107	-0.2235039318	 0.144305
H	-1.6304916787	-1.6810580216	-1.6552892545	 0.288474
67.5648	150.1088	214.3245	248.0848	262.0579	318.3752	352.5618	441.686	470.3527	510.8084	565.7004	592.062	622.4473	709.0193	763.7298	858.5822	871.9537	904.235	964.9037	988.4885	1053.9869	1100.203	1135.2743	1163.8052	1207.4489	1231.4688	1267.3077	1301.202	1323.6403	1354.4305	1357.4291	1397.1345	1441.3343	1469.1781	1839.0254	3068.672	3116.9492	3136.4665	3186.5138	3644.6213	3776.4896	3791.7355
OC1C2NC(=O)CC12O	O[C@H]1[C@H]2NC(=O)C[C@@]12O	
InChI=1S/C5H7NO3/c7-2-1-5(9)3(6-2)4(5)8/h3-4,8-9H,1H2,(H,6,7)	InChI=1S/C5H7NO3/c7-2-1-5(9)3(6-2)4(5)8/h3-4,8-9H,1H2,(H,6,7)/t3-,4+,5+/m1/s1
