17
gdb 9113	3.70137	1.09143	0.88005	2.724	75.23	-0.2514	0.0202	0.2716	1321.4953	0.138403	-363.82189	-363.812363	-363.811419	-363.85675	33.059	
C	 0.3289895315	 1.2408020234	-0.2782284889	-0.314859
N	-0.3147592121	 0.1198037454	 0.3736389903	-0.205189
C	 0.4062891593	-0.6328678948	 1.0746532921	 0.136001
O	-0.1370379266	-1.6883635826	 1.7235103529	-0.205608
C	 0.7704798573	-2.5000593315	 2.487190446	-0.054344
C	-0.0936625765	-3.4126399087	 3.3554936105	-0.394164
C	 1.6777919539	-3.2550682312	 1.618936546	 0.352132
C	 2.4221067258	-3.8761425498	 0.9090841676	-0.479789
H	 0.1769147877	 1.1717733022	-1.3613796306	 0.128778
H	-0.1404033476	 2.1756175573	 0.0490810971	 0.12739
H	 1.4122556437	 1.3117443672	-0.0855456943	 0.095765
H	 1.4896373586	-0.5106507078	 1.2249820217	 0.082711
H	 1.3687468195	-1.8437286022	 3.1361108039	 0.11226
H	-0.7107830061	-4.0548864478	 2.7234166996	 0.145769
H	 0.5402649029	-4.0406202449	 3.9857561029	 0.131589
H	-0.7453697727	-2.8058144367	 3.9883763211	 0.133686
H	 3.0786306613	-4.4227825674	 0.2776674021	 0.207873
51.7058	68.1795	139.7098	189.3856	208.4516	215.6301	257.3315	309.7071	324.8169	422.5639	507.3982	567.3187	630.0838	640.162	680.7794	830.0225	937.7785	973.0969	1046.6829	1059.4368	1111.1077	1141.3511	1150.2905	1155.8374	1239.6026	1339.593	1355.7536	1405.9811	1417.484	1450.3434	1480.9364	1482.0281	1494.5944	1505.3297	1781.1431	2236.5943	2966.5328	2994.2039	3006.5095	3056.9742	3058.2349	3077.6804	3139.0438	3142.6258	3501.8111
CN=COC(C)C#C	CN=CO[C@@H](C)C#C	
InChI=1S/C6H9NO/c1-4-6(2)8-5-7-3/h1,5-6H,2-3H3	InChI=1S/C6H9NO/c1-4-6(2)8-5-7-3/h1,5-6H,2-3H3/t6-/m0/s1
