20
gdb 13988	5.12137	1.08461	1.01268	1.1592	75.23	-0.2455	0.0809	0.3264	1212.7716	0.177251	-348.971819	-348.963448	-348.962504	-349.004938	31.325	
O	-0.1015778316	 1.4793729044	-0.0760364216	-0.420148
C	-0.0125243594	 0.065310565	-0.1697410125	-0.065714
C	-1.3820892805	-0.5141445997	 0.1761786345	-0.303204
C	-1.4038442769	-2.0169057247	 0.139082525	 0.389123
C	-1.5794623846	-2.8040237747	-1.1346969927	-0.318606
C	-2.5793504702	-2.9877279411	-0.0247954138	-0.112258
C	-2.0002870536	-3.9147888521	 1.0487333336	-0.218508
C	-0.7923664968	-2.934975146	 1.2139226547	-0.28568
H	 0.7591798242	 1.849881319	-0.2911100298	 0.284159
H	 0.2756836791	-0.2533714392	-1.1840678954	 0.087363
H	 0.7456645083	-0.3328692363	 0.5243013914	 0.086108
H	-1.6671095266	-0.1516309554	 1.1721958592	 0.10178
H	-2.1179495285	-0.1081699555	-0.5284676029	 0.102592
H	-1.9329384693	-2.2300454562	-1.9861676963	 0.106852
H	-0.8940297331	-3.6087842931	-1.3951283878	 0.098114
H	-3.6303527719	-2.7631918156	-0.1672105059	 0.081963
H	-2.613282703	-3.9684826735	 1.9511571129	 0.101763
H	-1.7693146218	-4.9356492167	 0.7256286382	 0.093392
H	 0.204699658	-3.3349250768	 1.0000408138	 0.090217
H	-0.7727387316	-2.4696632317	 2.203227005	 0.100691
77.1793	97.391	128.158	240.5456	262.3539	330.6919	341.5856	397.9793	432.2545	681.6577	735.2128	784.4637	800.0895	842.2086	890.9853	933.1124	954.7748	970.7281	995.7188	1005.4472	1035.6614	1048.2203	1076.0048	1087.1979	1122.3636	1157.2415	1203.2442	1221.0796	1239.5674	1245.3428	1257.9913	1270.8912	1300.2002	1325.2809	1342.4308	1406.2449	1460.3358	1481.0494	1484.2432	1487.6954	1512.6383	1526.6877	2963.9416	2991.3987	3023.2879	3036.267	3045.4267	3066.7643	3087.0154	3095.5023	3107.9802	3172.2071	3190.3885	3829.6964
OCCC12CC1CC2	OCC[C@]12C[C@H]1CC2	
InChI=1S/C7H12O/c8-4-3-7-2-1-6(7)5-7/h6,8H,1-5H2	InChI=1S/C7H12O/c8-4-3-7-2-1-6(7)5-7/h6,8H,1-5H2/t6-,7-/m1/s1
