18
gdb 117739	2.03172	1.28569	1.0468	1.7816	73.06	-0.2632	-0.0537	0.2095	1242.7741	0.143801	-439.091611	-439.081004	-439.08006	-439.128366	35.802	
C	 0.3275165493	 0.9429055099	 0.4175103829	-0.25716
O	-0.2499440396	 0.2028343808	-0.6468320669	-0.244082
C	 0.6462413853	-0.5994379124	-1.3753898738	-0.086417
C	 0.5756629741	-2.093614511	-0.9577584843	-0.044178
C	-0.8803998841	-2.619643998	-1.0557431689	-0.416884
C	 1.4408151405	-2.9497079965	-1.9036510415	 0.157794
O	 1.8754587733	-2.550857425	-2.9485136528	-0.238379
C	 1.0804043254	-2.301659067	 0.4038126245	 0.273817
N	 1.5015634916	-2.4934673368	 1.4636378551	-0.337926
H	 0.7472185678	 0.2959214134	 1.1969095275	 0.140413
H	 1.1161335229	 1.615218235	 0.0505281068	 0.115069
H	-0.4749992681	 1.5444286714	 0.8500871411	 0.133999
H	 0.363512213	-0.5506950246	-2.4309340327	 0.131095
H	 1.6788094048	-0.2386441303	-1.2908927554	 0.115733
H	-1.2304601901	-2.5298586157	-2.087885523	 0.140917
H	-0.9478304296	-3.6655798318	-0.746503716	 0.13856
H	-1.521271731	-2.0137508217	-0.413824253	 0.164509
H	 1.6051359244	-3.9909714695	-1.5535077795	 0.113121
36.7061	63.5004	101.3037	140.4901	174.2246	178.6358	215.7878	224.2258	277.3584	328.427	390.0716	428.7761	531.2757	579.4796	629.3404	720.5703	891.7321	916.8269	963.8111	979.2881	1023.4342	1119.0903	1148.5592	1181.4946	1185.9389	1211.3757	1237.1829	1328.9528	1389.4526	1403.6376	1419.9406	1476.1908	1484.073	1491.4252	1495.012	1499.7411	1511.6265	1835.3809	2346.2	2910.0867	2999.0995	3030.2083	3051.9601	3068.6643	3094.3557	3125.5289	3129.189	3151.5447
COCC(C)(C=O)C#N	COC[C@@](C)(C=O)C#N	
InChI=1S/C6H9NO2/c1-6(3-7,4-8)5-9-2/h4H,5H2,1-2H3	InChI=1S/C6H9NO2/c1-6(3-7,4-8)5-9-2/h4H,5H2,1-2H3/t6-/m1/s1
