14
gdb 14014	4.78366	1.28638	1.18812	1.1652	59.39	-0.2664	-0.0507	0.2157	993.5169	0.105041	-419.63046	-419.623105	-419.622161	-419.662751	25.844	
O	-0.655815116	 0.6119702699	 0.6907292763	-0.242158
C	 0.1910365507	 0.9145590539	-0.1089446972	 0.155314
C	 1.1612670956	 2.0311126174	 0.0937098154	-0.143131
O	 2.3900540117	 1.9126216764	-0.6571696294	-0.257323
C	 1.4952349703	 2.9184556087	-1.0361417394	 0.350185
C	 0.8963684019	 3.0987113732	-2.4300477951	-0.153778
O	 1.1660334355	 4.5155232994	-2.362460524	-0.269449
C	 1.8030539165	 4.4124894656	-1.0699043674	-0.148837
H	 0.3207919045	 0.382658454	-1.0777932036	 0.091734
H	 1.2574847821	 2.4041247331	 1.1118996029	 0.125331
H	 1.4615602281	 2.598163199	-3.2260805662	 0.123959
H	-0.1726301649	 2.8865374818	-2.5464735607	 0.121798
H	 1.3118549581	 5.034874015	-0.3133173393	 0.121219
H	 2.8741461159	 4.6468999526	-1.1057777222	 0.125137
76.0552	122.5475	150.3176	223.5411	360.9906	382.2429	432.3652	491.4272	576.9711	824.6248	880.217	917.5367	937.2115	983.7409	1020.3229	1028.0805	1079.3918	1108.1067	1127.338	1144.486	1165.737	1176.2254	1278.6137	1301.6613	1347.4929	1400.6152	1495.9316	1497.1775	1524.6518	1829.6388	2892.3007	3016.9682	3027.6788	3070.6032	3073.0422	3141.6589
O=CC1OC11COC1	O=C[C@H]1OC21COC2	
InChI=1S/C5H6O3/c6-1-4-5(8-4)2-7-3-5/h1,4H,2-3H2	InChI=1S/C5H6O3/c6-1-4-5(8-4)2-7-3-5/h1,4H,2-3H2/t4-/m1/s1
