16
gdb 42446	4.57923	0.80032	0.7594	5.0387	71.96	-0.2636	0.0081	0.2718	1485.0339	0.12438	-434.080762	-434.07174	-434.070796	-434.116397	31.143	
O	 0.1944265984	 1.4093367234	-1.5930776142	-0.371059
C	 0.0746929994	 1.7817992348	-0.4445152466	 0.447734
N	 1.0009281821	 1.5220330645	 0.5420010564	-0.333772
C	 2.2798530495	 0.9371969525	 0.2007602763	-0.27715
C	 3.3928354166	 1.8940408326	 0.294156158	 0.253265
N	 4.2627885448	 2.6465409681	 0.4009374615	-0.2973
N	-1.000550791	 2.5528516289	 0.035473569	-0.137906
C	-2.3044195018	 2.3703628951	-0.5729051299	-0.208905
C	-2.0636955534	 1.9291803769	 0.8320338695	-0.236708
H	 0.9240386534	 2.0450210268	 1.400206603	 0.264311
H	 2.5069941021	 0.0792238618	 0.8440950993	 0.156204
H	 2.1941477081	 0.5772989723	-0.8288614775	 0.196965
H	-2.8552489838	 3.2854608937	-0.7661333815	 0.131108
H	-2.3788089395	 1.6065976216	-1.3408783524	 0.147351
H	-1.9896805226	 0.8605959824	 1.0168378822	 0.13512
H	-2.4289380122	 2.5185068648	 1.6679462069	 0.130741
32.9312	52.4422	75.0695	182.418	220.8104	278.8394	314.6333	372.4227	453.7782	498.41	586.0373	624.8716	780.0483	810.851	834.5163	921.6808	935.9926	954.398	1044.5112	1055.9435	1112.3983	1129.4541	1139.8262	1177.2094	1182.0393	1218.6956	1277.7921	1347.3476	1383.0047	1462.2067	1495.4509	1515.6789	1528.455	1791.2215	2362.4494	3042.5614	3105.0298	3111.9479	3126.6441	3199.2507	3219.7991	3637.5584
O=C(NCC#N)N1CC1	O=C(NCC#N)N1CC1	
InChI=1S/C5H7N3O/c6-1-2-7-5(9)8-3-4-8/h2-4H2,(H,7,9)	InChI=1S/C5H7N3O/c6-1-2-7-5(9)8-3-4-8/h2-4H2,(H,7,9)
