19
gdb 70157	2.70254	1.55874	1.1974	0.3708	77.99	-0.2289	0.0163	0.2452	1076.8318	0.16012	-423.006444	-422.998429	-422.997485	-423.038648	31.921	
O	-0.3050659837	 1.40388302	 0.5847746775	-0.463331
C	-0.0978891522	 0.1117113725	 0.0750364009	 0.352908
C	-0.4659235514	-0.1677170142	-1.3519291397	-0.35051
C	-1.3618499555	-0.6508279745	-0.2001028151	-0.091479
C	-1.5869691977	-2.0827545928	 0.1071152313	-0.052611
C	-0.7250615854	-3.0264751264	 0.4920396358	-0.083279
C	 0.7579163989	-2.921101714	 0.7178230904	-0.138799
O	 1.4107191337	-1.8197789983	 0.1190087029	-0.234401
C	 1.1179273661	-0.5637301603	 0.6893570809	-0.152517
H	 0.348344584	 1.9883968018	 0.1833056585	 0.282619
H	-0.834771288	 0.6568043751	-1.9523397642	 0.109989
H	 0.1073914337	-0.9249015581	-1.8733587258	 0.131417
H	-2.2481838111	-0.0369844032	-0.0721679802	 0.10003
H	-2.6257601464	-2.3895853551	 0.0009341667	 0.088681
H	-1.1183257949	-4.0242583894	 0.6813401021	 0.087204
H	 0.9675832447	-2.9366980486	 1.8035981966	 0.100994
H	 1.2461312028	-3.8089000764	 0.2976676491	 0.116139
H	 1.9953890722	 0.0717042991	 0.5075816784	 0.095099
H	 0.98549758	-0.638733337	 1.7796401741	 0.101849
95.7087	177.961	266.1888	283.5593	309.4128	350.9734	409.463	427.1534	459.6391	491.2005	576.5903	680.5707	741.9047	773.3507	813.7552	887.7938	900.9056	933.0152	969.8135	992.0303	1001.952	1025.5585	1057.0298	1081.0739	1107.6927	1121.2554	1165.2082	1216.4399	1261.6946	1276.3954	1305.441	1325.6184	1358.2639	1388.8751	1411.1974	1418.62	1433.2161	1474.1413	1486.3033	1498.257	1732.5161	2933.7799	2985.9513	3034.8563	3047.2631	3126.8274	3135.9885	3147.4688	3160.9593	3238.1638	3785.3584
OC12CC1C=CCOC2	O[C@]12C[C@H]1C=CCOC2	
InChI=1S/C7H10O2/c8-7-4-6(7)2-1-3-9-5-7/h1-2,6,8H,3-5H2	InChI=1S/C7H10O2/c8-7-4-6(7)2-1-3-9-5-7/h1-2,6,8H,3-5H2/t6-,7+/m1/s1
