18
gdb 8410	3.72285	1.60835	1.38209	2.1237	67.92	-0.2509	0.0651	0.316	962.7004	0.151328	-384.907435	-384.899036	-384.898092	-384.940019	30.865	
C	-0.0699673621	 1.5324095927	 0.0330675199	-0.455994
C	-0.0881962362	 0.0212851619	 0.0856668469	 0.300588
C	-1.2627597636	-0.6521326957	-0.5877614467	-0.455994
O	 1.1956079398	-0.6079836158	-0.1666486081	-0.314483
C	 0.6559381079	-0.6829439205	 1.1339690458	 0.313675
C	 1.3487825218	-0.1938952623	 2.4033218292	-0.157498
O	 0.9481434241	-1.3992501567	 3.0930456686	-0.276291
C	 0.3761831447	-1.9751641093	 1.8970960427	-0.157498
H	 0.8239979133	 1.9322019827	 0.5171740184	 0.129168
H	-0.0782501001	 1.8780911842	-1.0062065709	 0.128984
H	-0.9528285507	 1.947962801	 0.5308402118	 0.123686
H	-1.3073446292	-0.3728584426	-1.6459074965	 0.128983
H	-1.1809168223	-1.739746201	-0.526397404	 0.129168
H	-2.2049839997	-0.3453379018	-0.1208604031	 0.123686
H	 2.4391648156	-0.1052318737	 2.3135447137	 0.113228
H	 0.9451693958	 0.709063334	 2.877655198	 0.106682
H	-0.6747630685	-2.2577629238	 2.0345005483	 0.106682
H	 0.9450489091	-2.8416322735	 1.535877006	 0.113228
102.639	159.2912	178.4839	188.1203	200.25	271.9022	349.3737	452.4886	454.4089	463.9159	553.4865	693.1675	825.0713	893.2754	936.1525	936.8502	950.4258	995.2036	1006.2628	1022.5971	1111.5524	1135.9357	1140.611	1143.9447	1172.8603	1191.6218	1253.9419	1297.7859	1350.6732	1407.8073	1417.6532	1472.4782	1475.2935	1485.1299	1498.622	1500.3274	1524.6765	1545.519	3006.8084	3018.2078	3033.9398	3038.6238	3058.8588	3059.0992	3096.8454	3101.4602	3125.0791	3126.7295
CC1(C)OC11COC1	CC1(C)OC21COC2	
InChI=1S/C6H10O2/c1-5(2)6(8-5)3-7-4-6/h3-4H2,1-2H3	InChI=1S/C6H10O2/c1-5(2)6(8-5)3-7-4-6/h3-4H2,1-2H3
