15
gdb 127840	3.98428	1.14395	0.89513	4.7513	78.79	-0.2118	-0.0552	0.1566	1238.4322	0.111685	-450.089629	-450.08102	-450.080076	-450.123257	30.976	
C	-0.0359200281	 1.4349480066	 0.0049494296	-0.327741
N	-0.1182764111	-0.0077870169	-0.1047876028	-0.308415
C	 0.4956866987	-0.6349006289	-1.0313082544	 0.418729
C	 0.4205568632	-2.0812902112	-1.1461198565	-0.33301
C	 1.1395421266	-2.6890047575	-2.1014787106	 0.515686
O	 1.1144252406	-4.0212926979	-2.336011817	-0.420805
N	 1.9473267632	-1.9231786878	-2.9219421569	-0.340152
N	 1.9420669202	-0.5459249567	-2.9012675844	-0.047807
N	 1.2884312513	 0.0532781172	-2.0207950396	-0.235886
H	 0.6077664608	 1.919607271	-0.7356441743	 0.129516
H	-1.0470849929	 1.8535291587	-0.0773891167	 0.120648
H	 0.3206224189	 1.6910417054	 1.0104707467	 0.119499
H	-0.1932608195	-2.64511122	-0.4588182886	 0.131797
H	 1.9861039243	-4.3279777707	-2.6140881346	 0.307038
H	 2.2971771238	-2.2872700112	-3.79510172	 0.270905
71.9515	95.6239	144.3828	234.7359	240.8795	291.9294	376.9485	393.5243	468.5526	487.4695	526.1492	622.8881	642.8918	729.2717	769.2623	860.9161	912.7056	987.7029	1023.1241	1055.9914	1127.7639	1139.9588	1191.4451	1238.8201	1282.4657	1368.2735	1427.0544	1431.7603	1488.7511	1494.9463	1611.135	1707.3667	1747.2785	3011.7001	3058.3918	3096.0019	3243.8091	3629.8164	3790.3084
CN=C1C=C(O)NN=N1	C[N]c1cc(O)[nH]nn1	
InChI=1S/C4H6N4O/c1-5-3-2-4(9)7-8-6-3/h2H,1H3,(H2,5,6,7,9)	InChI=1S/C4H11N4O/c1-5-3-2-4(9)7-8-6-3/h3-4,6-9H,2H2,1H3
