15
gdb 48675	3.47518	1.23844	1.10966	2.6844	67.78	-0.2566	-0.0499	0.2068	1086.2148	0.111082	-457.770562	-457.76281	-457.761866	-457.803309	28.561	
O	-0.0169359949	-0.007227308	 0.2387960354	-0.250845
C	 0.0416878353	 1.150909514	-0.0760078784	 0.101467
C	 1.2739066475	 1.9782976129	-0.0531739988	 0.348221
C	 1.178077212	 3.466691598	 0.1550141648	-0.352166
C	 1.603100927	 2.9339050569	-1.1995342561	-0.23868
C	 3.0756190831	 2.7496907555	-1.4088925992	 0.392635
O	 3.7443912183	 3.1814884324	-2.3094583249	-0.304853
C	 3.5719292051	 1.8334364327	-0.2811217962	-0.203516
O	 2.4310764277	 1.3494576764	 0.4143527998	-0.286143
H	-0.8527918674	 1.7209710451	-0.4185779691	 0.077687
H	 0.1924028996	 3.9177253408	 0.195243678	 0.144308
H	 1.9179214263	 3.9185458397	 0.8062648957	 0.146352
H	 0.9685808116	 3.08880556	-2.0626304276	 0.132733
H	 4.133917507	 0.9929783074	-0.7024124911	 0.153808
H	 4.2403646017	 2.3860806963	 0.3926070378	 0.138989
80.4338	105.9037	186.089	206.1451	330.4674	380.3753	453.1958	515.4638	545.416	622.443	660.835	753.431	796.6791	825.9344	918.8747	931.7312	982.9169	1017.7273	1031.9159	1059.247	1064.9076	1098.1068	1161.5329	1203.3932	1224.3046	1276.2335	1339.6399	1371.4078	1438.0263	1469.8431	1485.4456	1833.7844	1852.1668	2866.0368	3023.0782	3075.9916	3136.5142	3204.1653	3229.4431
O=CC12CC1C(=O)CO2	O=C[C@]12C[C@H]1C(=O)CO2	
InChI=1S/C6H6O3/c7-3-6-1-4(6)5(8)2-9-6/h3-4H,1-2H2	InChI=1S/C6H6O3/c7-3-6-1-4(6)5(8)2-9-6/h3-4H,1-2H2/t4-,6+/m0/s1
