17
gdb 43250	3.39596	1.62202	1.39184	4.2061	79.07	-0.2334	-0.054	0.1794	950.9209	0.13883	-384.679886	-384.673426	-384.672482	-384.710554	26.821	
O	-0.0293278933	 0.0750070497	 0.3906178416	-0.342816
C	-0.024572784	 1.2346154005	 0.0485759366	 0.396774
C	-1.1916358454	 2.1617065473	-0.0730585961	-0.242846
C	-0.7383119196	 3.3804841607	-0.4246869853	 0.145568
C	-0.8672703769	 4.6175517912	 0.4198636821	-0.264713
C	 0.4091070424	 4.3055117252	 1.2986503369	-0.229861
C	 1.3889116656	 3.5483327241	 0.3574404797	-0.042345
C	 1.1938389319	 2.0939494669	-0.2175233426	-0.172263
C	 0.6920736119	 3.3159736413	-0.9315263836	-0.12804
H	-2.122546966	 1.9532792392	 0.4422999776	 0.111542
H	-0.7326540313	 5.5520295794	-0.1329761395	 0.111743
H	-1.7852159928	 4.6701894484	 1.0072989239	 0.115393
H	 0.8891628093	 5.2270263157	 1.6417310345	 0.112763
H	 0.1234318862	 3.7239758333	 2.1793339541	 0.122646
H	 2.4315435161	 3.848654697	 0.3903455295	 0.099821
H	 2.1121927048	 1.5925137424	-0.5029163573	 0.102678
H	 0.989606551	 3.6295243676	-1.924864872	 0.103955
127.6495	246.7528	353.9231	364.6884	441.2364	588.47	621.8546	637.0803	681.7723	746.2561	787.5992	826.3167	843.1815	861.8724	875.5728	889.2036	902.6156	963.4743	976.5802	1033.6066	1051.9386	1089.5625	1100.1962	1113.2944	1149.2245	1182.6959	1193.4065	1250.4957	1272.0992	1304.1462	1309.543	1318.3831	1367.2518	1474.7688	1494.5814	1626.6211	1803.7143	3052.5817	3059.8694	3101.8444	3130.3964	3159.4071	3177.3896	3187.6767	3198.6227
O=C1C=C2CCC3C1C23	O=C1[CH][C]2CC[C@H]3[C@@H]1[C@@H]23	
InChI=1S/C8H8O/c9-6-3-4-1-2-5-7(4)8(5)6/h3,5,7-8H,1-2H2	InChI=1S/C8H8O/c9-6-3-4-1-2-5-7(4)8(5)6/h3,5,7-8H,1-2H2/t5-,7+,8+/m1/s1
