18
gdb 70679	2.89598	1.61205	1.2132	3.0583	72.64	-0.2427	0.0236	0.2663	1047.9725	0.147903	-439.069457	-439.061268	-439.060324	-439.102194	30.749	
C	-0.0217269804	 1.5229517018	 0.0009177566	-0.460128
C	-0.0006770645	 0.0103543525	 0.0358310212	 0.366209
C	-1.0702939925	-0.6442833502	-0.8325537398	-0.231652
N	-0.9826420755	-2.0445814896	-1.1758483383	-0.264574
C	-0.4234214334	-2.9813188994	-0.5517646525	 0.147447
O	 0.21980039	-3.0804196016	 0.6402988784	-0.211394
C	 0.1163144569	-2.0673502417	 1.6313136262	-0.136701
C	 0.5587275276	-0.6836769231	 1.1994877489	-0.013906
O	 1.31497898	-0.57382836	-0.0046528421	-0.274414
H	 0.7500278687	 1.9355780585	 0.6549701387	 0.129514
H	 0.1628313451	 1.8848851382	-1.0160679014	 0.132816
H	-0.9952571967	 1.908711841	 0.3228220713	 0.123094
H	-2.0492881096	-0.4477287908	-0.3700158725	 0.117979
H	-1.0947211649	-0.0973224454	-1.784617641	 0.118669
H	-0.4058758166	-3.9723787079	-1.0068499091	 0.121571
H	-0.9133362085	-2.0209003416	 2.0148758043	 0.116458
H	 0.7560005637	-2.4216989545	 2.4440853094	 0.129049
H	 0.9254399008	-0.0740116661	 2.0287629317	 0.089962
85.0473	149.4755	175.7303	234.2922	263.898	320.3669	349.934	425.3089	465.7239	552.1804	658.5378	701.6397	767.6392	831.4639	894.358	911.0469	953.2918	970.8186	982.6388	1006.8357	1036.6122	1079.5569	1117.8686	1136.6694	1198.8753	1223.0635	1289.5295	1296.7939	1345.6914	1390.6495	1407.247	1414.6427	1443.6195	1474.0559	1475.7353	1490.8734	1497.4112	1524.1165	1786.6636	2997.1226	3006.0514	3025.3355	3035.9366	3076.435	3094.7135	3099.5747	3124.6248	3132.4085
CC12CN=COCC1O2	C[C@]12CN=COC[C@H]1O2	
InChI=1S/C6H9NO2/c1-6-3-7-4-8-2-5(6)9-6/h4-5H,2-3H2,1H3	InChI=1S/C6H9NO2/c1-6-3-7-4-8-2-5(6)9-6/h4-5H,2-3H2,1H3/t5-,6+/m1/s1
