16
gdb 128407	3.55775	0.7352	0.62956	2.8436	73.2	-0.2432	-0.1205	0.1227	1737.0721	0.11943	-471.150773	-471.140323	-471.139379	-471.188628	34.506	
C	-0.7132019239	 1.8953296744	 0.0704513375	-0.307584
N	 0.002529619	 0.6846978759	 0.4819486615	-0.497776
H	 0.2523233536	 0.7464824656	 1.4640750234	 0.227895
H	-0.5976003646	-0.1303864348	 0.3878898996	 0.257698
C	 1.8648742637	-1.2620341999	-1.4655219173	-0.40219
C	 1.2106994063	-2.4030514855	-1.700306802	 0.341103
C	-0.1258918487	-2.7864309802	-1.194769488	 0.30963
O	-0.9186825136	-2.2247912814	-0.4952980628	-0.278417
N	-0.3361279922	-4.1258885155	-1.761953265	-0.142488
N	 0.6276221327	-4.4630327396	-2.4363701387	 0.064203
O	 1.6701155454	-3.4258294932	-2.4576046482	-0.270717
H	-0.05049212	 2.7617911776	 0.1628183191	 0.121785
H	-0.9923654077	 1.8080656653	-0.9841894275	 0.125935
H	-1.6293845467	 2.1099778134	 0.6420677231	 0.103571
H	 1.4059780154	-0.4956872325	-0.8390581911	 0.199553
H	 2.8463773113	-1.0899648496	-1.8916751939	 0.147798
28.8172	53.901	74.1309	101.9816	117.6315	151.9525	175.6615	296.9986	334.2934	396.9425	481.1494	526.598	572.9421	667.9127	760.4608	775.288	824.4956	897.6954	901.9464	978.5047	995.1638	1023.4827	1064.1532	1071.1978	1184.5086	1281.9485	1358.5405	1456.1178	1461.5039	1498.0356	1518.679	1622.9518	1675.6257	1696.091	1865.1608	2982.3721	3066.8009	3083.6909	3104.2285	3234.6261	3490.8276	3568.5044
C[NH2+]CC1=C([O-])N=NO1	CN.C=C1C(=O)N=NO1	
InChI=1S/C4H7N3O2/c1-5-2-3-4(8)6-7-9-3/h5,8H,2H2,1H3	InChI=1S/C3H2N2O2.CH5N/c1-2-3(6)4-5-7-2;1-2/h1H2;2H2,1H3
