24
gdb 76617	2.43508	1.16053	0.97437	2.554	86.44	-0.2305	0.0825	0.3129	1386.5507	0.214206	-405.534947	-405.523963	-405.523019	-405.570202	41.354	
C	-0.0794949464	 1.4189439897	 0.7739702519	-0.423895
C	 0.0378213844	-0.0309516464	 0.3586008531	 0.002802
C	 0.240886047	-0.4275517363	-1.0629435947	-0.047166
N	 1.305543334	-0.6377452619	-0.0861836391	-0.125875
C	 2.5198995435	 0.1601865627	-0.1723313305	-0.319685
C	-0.3551666829	-1.7059663655	-1.659699014	 0.346011
C	-1.8227829173	-1.495030729	-2.0344116644	-0.39786
C	 0.4735981426	-2.1335376817	-2.8834806643	-0.412814
O	-0.3197019057	-2.7322339156	-0.6751145136	-0.474522
H	 0.42105741	 2.0997321256	 0.0814037918	 0.119602
H	-1.1357931209	 1.7050778528	 0.8107320552	 0.128041
H	 0.3393073188	 1.5804598769	 1.7735568065	 0.123809
H	-0.5382223759	-0.7182332974	 0.9752960609	 0.099923
H	 0.3794179852	 0.3914146029	-1.7711654045	 0.070072
H	 2.3683253031	 1.1806327879	-0.5526324257	 0.104854
H	 2.9834196136	 0.2281385897	 0.8172613221	 0.124336
H	 3.2250344381	-0.3444658442	-0.8403336756	 0.126827
H	-1.9267946985	-0.7189611735	-2.7995124196	 0.1051
H	-2.2456932117	-2.4244241281	-2.426930561	 0.121464
H	-2.4019429901	-1.2002803894	-1.1552449415	 0.116976
H	 1.520872947	-2.2820649764	-2.6001376166	 0.111533
H	 0.0914086734	-3.0782718624	-3.280114516	 0.119015
H	 0.4376013244	-1.3814657697	-3.6796453384	 0.101944
H	 0.5201434143	-2.597598511	-0.2070547521	 0.279508
74.7778	133.7196	161.3215	181.9219	186.2721	212.7448	256.9346	264.6583	280.5864	313.829	348.2953	361.0233	414.3053	472.0733	541.9695	553.5924	596.8957	762.743	808.6292	828.085	878.3395	925.0848	972.3342	991.4699	1011.3568	1035.4593	1057.858	1116.1143	1132.1595	1164.1446	1173.7892	1174.5946	1201.8984	1213.8338	1248.3102	1291.525	1358.6791	1389.1084	1399.2907	1410.7609	1421.685	1446.928	1468.9689	1476.0829	1485.2679	1488.2904	1491.5511	1500.0108	1504.5079	1505.7864	1508.7976	2995.2245	3027.9471	3036.7874	3040.2037	3070.0668	3089.7894	3095.0938	3098.0469	3100.6824	3110.3224	3114.1765	3115.6103	3120.0589	3134.5758	3678.8322
CC1C(N1C)C(C)(C)O	C[C@H]1[C@@H](N1C)C(C)(C)O	
InChI=1S/C7H15NO/c1-5-6(8(5)4)7(2,3)9/h5-6,9H,1-4H3	InChI=1S/C7H15NO/c1-5-6(8(5)4)7(2,3)9/h5-6,9H,1-4H3/t5-,6+,8?/m0/s1
