15
gdb 79384	3.30363	1.39946	1.12161	4.2256	70.51	-0.2492	0.0011	0.2503	1046.5313	0.113359	-416.713961	-416.706715	-416.70577	-416.745676	28.016	
O	-0.023395217	 1.4930305139	-0.0628697782	-0.436929
C	 0.0693407147	 0.0920767672	-0.0370898134	 0.103237
C	 0.0720916058	-0.603337894	 1.3430471683	-0.15785
C	-1.4682710586	-0.3551679841	 1.5319319121	-0.032793
N	-1.8321437235	-1.7905844163	 1.7795726744	-0.372717
C	-0.7225259008	-1.8371422487	 0.7704030517	 0.272186
C	-0.1809597001	-3.052757377	 0.2216806739	 0.156203
N	 0.2730744786	-4.0241874398	-0.2114520036	-0.345159
C	-1.2972396754	-0.5996928535	-0.0027619902	-0.098289
H	 0.8647770577	 1.8611838196	-0.0256810969	 0.291294
H	 0.7863598322	-0.2934204558	-0.773229617	 0.091262
H	 0.8371612356	-0.6450192904	 2.119803438	 0.091807
H	-1.9634994682	 0.4778192427	 2.0229261125	 0.110354
H	-1.4822681817	-2.0942446119	 2.6932034919	 0.218752
H	-2.0891694894	-0.6367470518	-0.7480751634	 0.10864
116.125	166.5888	231.4321	274.7534	332.154	459.0078	476.5724	539.7593	572.7904	628.1739	747.2331	799.6833	849.1037	872.8797	907.9869	924.6017	949.0449	985.8984	1039.8807	1064.7042	1108.4235	1122.2401	1132.8373	1153.8553	1196.2379	1208.6339	1238.2304	1263.3645	1293.7932	1304.3259	1330.7139	1442.0195	2350.4557	3026.2619	3111.9459	3147.9817	3165.8406	3398.0085	3825.25
OC1C2C3NC2(C#N)C13	O[C@H]1[C@H]2[C@@H]3N[C@@]2(C#N)[C@H]13	
InChI=1S/C6H6N2O/c7-1-6-2-4(8-6)3(6)5(2)9/h2-5,8-9H	InChI=1S/C6H6N2O/c7-1-6-2-4(8-6)3(6)5(2)9/h2-5,8-9H/t2-,3+,4+,5+,6-
