20
gdb 118564	1.57081	1.23382	0.76872	3.1204	73.	-0.2484	0.0332	0.2815	1496.6223	0.169333	-477.435538	-477.424759	-477.423815	-477.472501	37.258	
O	 0.2148215261	 1.1222471339	 0.0707201817	-0.425447
C	 0.097553877	-0.2931152738	 0.0031516023	-0.083683
C	-1.3901247955	-0.6217362707	 0.0071186928	-0.162264
C	-1.6899469186	-2.1293690659	-0.0017057169	 0.017006
C	-3.1865212333	-2.4138998182	 0.1228463062	-0.102186
O	-3.808546609	-1.9469567795	-1.0702637263	-0.426284
N	-1.20021894	-2.7930422762	-1.2066418271	-0.268902
C	-0.0556949933	-3.5173568251	-1.2510977709	 0.155916
O	 0.7209086386	-3.6598715378	-0.327181526	-0.338892
H	 1.150225264	 1.3433174208	 0.0466561595	 0.28524
H	 0.5697042173	-0.6879096659	-0.908012806	 0.094034
H	 0.591597728	-0.7795453852	 0.8581860354	 0.098742
H	-1.8357095308	-0.1808745769	 0.9071832798	 0.103408
H	-1.8718468371	-0.142468554	-0.8512326408	 0.116434
H	-1.1749714071	-2.6053202423	 0.8387143284	 0.114937
H	-3.3413077131	-3.4951873045	 0.2494378548	 0.098117
H	-3.5861884398	-1.9015262296	 1.0099201415	 0.098598
H	-4.7403116633	-2.1811151095	-1.0439237902	 0.295836
H	-1.7925436799	-2.7417631016	-2.0215293293	 0.255452
H	 0.1030344797	-3.9765234682	-2.2474243787	 0.073937
45.7509	79.5302	96.7097	115.5361	140.5603	221.0482	237.6283	265.3972	268.4738	278.2978	352.2392	387.1211	522.8373	593.3696	627.3498	763.1894	803.4583	917.3844	936.7703	968.0902	1028.3311	1032.3612	1068.5956	1105.7184	1129.9876	1142.0216	1191.0608	1207.673	1240.5053	1258.2596	1273.4585	1314.0145	1318.4019	1358.0361	1393.3944	1426.7878	1450.5592	1466.4488	1488.4211	1516.4919	1520.7636	1524.5732	1794.15	2931.9655	2984.5371	2988.5889	3016.0821	3026.7501	3041.0218	3072.8709	3095.3074	3627.7833	3831.5026	3841.5368
OCCC(CO)NC=O	OCC[C@@H](CO)NC=O	
InChI=1S/C5H11NO3/c7-2-1-5(3-8)6-4-9/h4-5,7-8H,1-3H2,(H,6,9)	InChI=1S/C5H11NO3/c7-2-1-5(3-8)6-4-9/h4-5,7-8H,1-3H2,(H,6,9)/t5-/m0/s1
