17
gdb 47754	2.75209	1.42606	0.98873	6.1924	74.14	-0.2775	-0.0013	0.2763	1158.0906	0.138056	-418.038948	-418.030924	-418.02998	-418.071919	29.934	
N	-0.0122584943	 1.3404884115	-0.1454876345	-0.482114
C	 0.0217081619	 0.0937117398	 0.0420431983	 0.400302
O	 1.1875207744	-0.6101504205	 0.1045996589	-0.253777
C	 1.2816927194	-1.7441642765	 0.9858373196	-0.074826
C	 0.0943165803	-2.6856260722	 0.857879802	-0.230844
C	-1.2009414094	-1.9032363762	 1.0729176247	-0.215724
C	-1.2597203489	-0.7387351228	 0.0554560867	-0.247245
C	-2.4514317048	 0.0833786533	 0.2607333366	 0.310643
N	-3.4368024609	 0.6554713186	 0.4477637968	-0.325312
H	 0.9364280768	 1.7203052359	-0.1665886264	 0.22954
H	 2.2216932127	-2.2312129025	 0.7185785729	 0.127471
H	 1.3678365138	-1.3762893048	 2.0177109659	 0.116295
H	 0.0955182743	-3.1515645138	-0.1349141849	 0.116935
H	 0.1912374255	-3.4884512607	 1.595879558	 0.117131
H	-2.0824920149	-2.5370593308	 0.9493410507	 0.12917
H	-1.2348927301	-1.4963821992	 2.0900280203	 0.129459
H	-1.3352841459	-1.1817841694	-0.9484848956	 0.152895
67.9377	136.5044	156.8797	234.0011	319.971	370.3044	406.7992	456.4954	516.0322	557.9014	569.6779	656.8207	789.1306	884.3943	902.5077	911.9511	931.9194	954.613	1034.7182	1062.0124	1086.6781	1116.1586	1128.8237	1202.0105	1236.9947	1265.1425	1295.2134	1315.4144	1332.7841	1381.708	1386.3197	1427.1009	1480.7744	1497.2816	1512.3295	1755.6413	2371.2437	3009.211	3014.2616	3038.0197	3050.0773	3089.1634	3104.6049	3111.312	3470.5517
N=C1OCCCC1C#N	[NH][C]1OCCC[C@H]1C#N	
InChI=1S/C6H8N2O/c7-4-5-2-1-3-9-6(5)8/h5,8H,1-3H2	InChI=1S/C6H8N2O/c7-4-5-2-1-3-9-6(5)8/h5,8H,1-3H2/t5-/m0/s1
