22
gdb 122828	6.67176	0.50682	0.47916	2.0415	80.56	-0.2442	0.0181	0.2623	2332.5909	0.192479	-441.522792	-441.5114	-441.510456	-441.561622	38.525	
C	 0.0619686846	 1.5637662434	 0.0770140622	-0.380886
C	 0.0079040313	 0.0337248157	 0.0649567338	-0.167222
C	 0.7639509019	-0.5959198351	 1.2406049137	-0.185544
C	 0.7026133817	-2.1139127062	 1.2170412618	-0.062442
O	 1.4386619131	-2.6043796637	 2.3561363499	-0.243099
C	 1.4923231552	-3.940732798	 2.4972711268	 0.413314
O	 0.9718918656	-4.7249575087	 1.7430309595	-0.360631
C	 2.2972388286	-4.3271575765	 3.7368580514	-0.273121
N	 2.413372853	-5.7541585732	 3.9777439539	-0.485999
H	 1.0953272405	 1.9232421576	 0.0220727275	 0.116833
H	-0.484284185	 1.9876469527	-0.7710056872	 0.115009
H	-0.3797817651	 1.967701582	 0.9944907443	 0.116833
H	-1.0389096522	-0.2965431975	 0.0859699048	 0.100655
H	 0.4249901589	-0.3406649188	-0.8790811187	 0.100657
H	 1.8144605276	-0.2804647494	 1.2221772184	 0.106071
H	 0.3472040736	-0.2361917823	 2.1894668506	 0.106075
H	-0.3276680792	-2.4814543068	 1.2744654764	 0.119393
H	 1.14509664	-2.5259388727	 0.3036473332	 0.119419
H	 3.2943772017	-3.88098438	 3.6430936539	 0.137166
H	 1.8368172006	-3.8375438755	 4.6031379519	 0.137189
H	 1.4806447015	-6.1537354794	 4.041327101	 0.235165
H	 2.8225650622	-6.1937353974	 3.1573658609	 0.235164
28.219	43.9998	71.6173	82.1794	121.1633	160.1435	204.8514	221.2409	247.711	268.7897	316.0575	424.1838	502.8187	577.132	697.2438	744.5713	806.5763	885.2448	920.9372	921.8617	950.1131	959.5066	993.6793	1045.094	1073.7897	1144.0595	1154.2833	1177.8966	1192.0543	1222.046	1252.4749	1295.5341	1308.2167	1328.3008	1370.7065	1388.4991	1388.5213	1413.3423	1424.2431	1456.2327	1488.894	1495.6959	1499.6984	1508.4904	1521.1173	1678.7808	1816.951	3016.3798	3028.3115	3033.0566	3041.3001	3042.5833	3044.4641	3064.9887	3076.9228	3092.2237	3100.409	3105.5824	3490.5553	3556.8653
CCCCOC(=O)CN	CCCCOC(=O)CN	
InChI=1S/C6H13NO2/c1-2-3-4-9-6(8)5-7/h2-5,7H2,1H3	InChI=1S/C6H13NO2/c1-2-3-4-9-6(8)5-7/h2-5,7H2,1H3
