19
gdb 64033	2.29075	1.56556	1.17554	1.6412	82.01	-0.2438	0.0165	0.2604	1117.6313	0.157183	-385.867289	-385.858179	-385.857235	-385.900593	35.507	
C	 0.4632381915	 1.4334837405	-0.400067184	-0.436271
C	 0.0402653136	 0.0099870547	-0.0368871884	 0.369445
O	-1.3208854698	-0.0175532407	 0.3759173983	-0.476441
C	 0.3379943837	-0.9700998206	-1.2145401783	-0.314389
C	 1.6557675006	-1.596651936	-0.840467013	-0.077236
C	 1.9602354632	-1.3867504615	 0.4374206063	-0.070228
C	 0.8813694295	-0.5881434852	 1.1481374123	-0.215901
C	 1.3807344863	 0.3692525233	 2.1271911559	 0.329333
C	 1.8090825237	 1.1381657527	 2.9463611545	-0.483213
H	 1.5208564934	 1.4692290318	-0.6773219706	 0.128662
H	-0.1197097915	 1.7875404319	-1.2593340787	 0.099301
H	 0.3025444076	 2.1106174461	 0.4411977012	 0.136844
H	-1.833470021	 0.5029137868	-0.2511976446	 0.276226
H	-0.4603363888	-1.7221726485	-1.2657956365	 0.114397
H	 0.3603903821	-0.4587089795	-2.1843364834	 0.096479
H	 2.2529032879	-2.1754247515	-1.5364183997	 0.097364
H	 2.8366252216	-1.7502271611	 0.9597140889	 0.105784
H	 0.2057845024	-1.2803663126	 1.6728166619	 0.126613
H	 2.183022654	 1.8175011193	 3.6716365777	 0.19323
73.2553	147.4843	179.9898	254.786	266.5366	310.1564	342.1383	367.2532	399.5168	442.115	517.2139	547.3462	599.7792	616.8857	636.7636	703.0719	753.9478	798.643	914.64	929.1984	962.0734	973.4161	978.9128	1013.6705	1057.335	1104.2719	1109.5058	1142.4737	1184.2623	1202.8294	1261.1917	1297.2866	1321.3775	1356.8998	1384.3165	1405.2962	1479.9686	1491.8945	1493.2544	1688.499	2233.7228	2993.1407	3018.3575	3027.7031	3054.7869	3099.4841	3135.8957	3187.4658	3217.7791	3503.9306	3813.5449
CC1(O)CC=CC1C#C	C[C@@]1(O)CC=C[C@H]1C#C	
InChI=1S/C8H10O/c1-3-7-5-4-6-8(7,2)9/h1,4-5,7,9H,6H2,2H3	InChI=1S/C8H10O/c1-3-7-5-4-6-8(7,2)9/h1,4-5,7,9H,6H2,2H3/t7-,8-/m1/s1
