20
gdb 32794	3.15863	1.02953	0.79468	3.1524	84.81	-0.1703	0.0406	0.2109	1473.5947	0.171661	-399.371085	-399.361307	-399.360363	-399.406876	34.909	
C	-0.0217853046	 1.4684388159	 0.1766691753	-0.392037
C	-0.1801570792	-0.0075733816	-0.1726318767	-0.108001
N	 0.887935889	-0.4374931637	-1.073067705	-0.403094
C	 0.9832131377	-1.7966188657	-1.3741490573	 0.2831
C	 1.4750109852	-2.3851783582	-2.5220820231	 0.198919
C	 1.9981740984	-1.8313817406	-3.8027506058	-0.513387
N	 1.4221841695	-3.7487227853	-2.2506681083	-0.294795
C	 0.9038349247	-3.9050077903	-1.0079420488	 0.004742
N	 0.6268508142	-2.7481128547	-0.4470694976	-0.318797
H	 0.9494044836	 1.6539817231	 0.6446710524	 0.12523
H	-0.0916998495	 2.1012998751	-0.7166735463	 0.104458
H	-0.8090341525	 1.7868991985	 0.8665125031	 0.114806
H	-0.1126930099	-0.6239960293	 0.7265187326	 0.138279
H	-1.1816909118	-0.1891141355	-0.5993347494	 0.081889
H	 0.9450671893	 0.1421696979	-1.9004641603	 0.217355
H	 3.0949916166	-1.845195075	-3.8651758203	 0.130078
H	 1.6145014337	-2.3783210573	-4.6732051466	 0.12219
H	 1.6860008753	-0.7891244194	-3.9225287919	 0.127107
H	 1.7050990767	-4.4827876211	-2.8773845938	 0.258301
H	 0.7462312037	-4.8752927327	-0.561502742	 0.123658
45.4139	62.9461	80.7035	137.8793	216.133	249.9611	271.4598	330.3089	351.2148	457.0879	473.5074	619.7642	647.8473	653.5492	737.9251	780.5254	795.9111	827.591	924.5415	959.2107	980.1075	1057.8591	1076.827	1101.2561	1135.2133	1145.0081	1202.452	1250.4105	1286.5131	1329.2315	1372.0379	1388.2399	1411.2946	1426.1353	1467.7451	1478.1815	1492.7164	1494.1516	1499.0857	1506.7009	1523.0796	1529.0003	1653.8585	2951.8278	3003.6922	3027.9264	3049.1177	3086.4276	3093.8889	3110.4528	3117.8136	3250.4617	3561.3626	3666.8791
CCNC1=C(C)NC=N1	CCNc1c(C)[nH]cn1	
InChI=1S/C6H11N3/c1-3-7-6-5(2)8-4-9-6/h4,7H,3H2,1-2H3,(H,8,9)	InChI=1S/C6H11N3/c1-3-7-6-5(2)8-4-9-6/h4,7H,3H2,1-2H3,(H,8,9)
