24
gdb 103423	2.25213	1.41643	1.22709	1.6264	88.	-0.2241	0.0775	0.3016	1211.7457	0.216539	-368.375936	-368.366135	-368.365191	-368.409768	38.205	
C	-0.2662201007	 1.3804710263	 0.2515607189	-0.395631
C	 0.0085693868	-0.1225307809	 0.1093388624	-0.232805
C	 0.6290953323	-0.5646775725	-1.224903144	 0.308631
C	 1.9294369841	 0.1898821001	-1.520936947	-0.457125
C	 0.8350873351	-2.0771773088	-1.3919771322	-0.061196
C	-0.4272235564	-2.8324291818	-1.4724883075	-0.262763
N	 0.0463279451	-2.1413425602	-2.6873102331	-0.14162
C	-0.269375642	-0.6710282727	-2.5189469548	 0.020001
C	-1.7434764245	-0.298171111	-2.5363857844	-0.41614
H	 0.6560172816	 1.9682862543	 0.2337424018	 0.119731
H	-0.912104061	 1.7522362853	-0.550163771	 0.118465
H	-0.7680851846	 1.589237977	 1.2015161867	 0.113439
H	 0.686957701	-0.4397063477	 0.9136672884	 0.094319
H	-0.9245816093	-0.6695134231	 0.279805909	 0.091044
H	 2.6301237851	 0.1116279107	-0.6809719821	 0.109636
H	 2.4229888193	-0.2216960637	-2.4070864688	 0.123345
H	 1.7462077114	 1.2529025483	-1.70590792	 0.116718
H	 1.7986551621	-2.571457646	-1.2971358188	 0.084895
H	-0.3556651784	-3.9125649199	-1.5612132496	 0.118062
H	-1.3203520677	-2.4904357466	-0.958746505	 0.107885
H	 0.2232937566	-0.1546879274	-3.3485039041	 0.078875
H	-2.3004065321	-0.682032962	-1.6774233116	 0.114584
H	-1.8679541521	 0.789191887	-2.5523579982	 0.119794
H	-2.2077547516	-0.700863855	-3.4432014052	 0.127857
99.453	137.6629	177.5889	208.895	233.6255	253.6868	273.0797	296.8806	329.8563	362.439	431.4074	497.9316	553.5215	617.5734	726.8595	760.9614	774.3348	785.2595	876.9593	905.7332	932.695	991.8291	1010.4276	1027.6608	1037.3258	1059.5364	1076.6085	1101.4372	1107.2951	1114.9278	1154.687	1189.8471	1210.6931	1226.1082	1254.7945	1287.6857	1314.3313	1362.2431	1372.9238	1393.2571	1403.4422	1408.0782	1415.2818	1475.8207	1486.274	1492.0723	1494.9471	1501.5092	1502.335	1511.2011	1514.6767	3013.9006	3025.0584	3037.2494	3041.1382	3049.4312	3061.0796	3091.2491	3101.0772	3102.4235	3106.5644	3111.8012	3113.7859	3120.5334	3139.4071	3199.2405
CCC1(C)C2CN2C1C	CC[C@@]1(C)[C@H]2CN2[C@H]1C	
InChI=1S/C8H15N/c1-4-8(3)6(2)9-5-7(8)9/h6-7H,4-5H2,1-3H3	InChI=1S/C8H15N/c1-4-8(3)6(2)9-5-7(8)9/h6-7H,4-5H2,1-3H3/t6-,7+,8+,9?/m0/s1
