22
gdb 10764	3.52719	1.32571	1.26072	1.3754	77.75	-0.2564	0.0729	0.3293	1119.149	0.198245	-350.197275	-350.187589	-350.186645	-350.231282	36.575	
C	-0.0662458325	 1.5165557484	 0.1617761475	-0.397105
C	-0.0725333786	 0.0071420413	-0.0925912177	-0.185752
C	 0.7289184253	-0.4506396921	-1.3352483873	 0.357135
C	 0.2165768644	 0.223392353	-2.6099950583	-0.424737
O	 2.0938224578	-0.0127462555	-1.2171502178	-0.462995
C	 0.6952366719	-1.9776437432	-1.3922650977	-0.011761
C	-0.2524833979	-2.7754878329	-2.2544059163	-0.272235
C	 1.2231328979	-2.7642120742	-2.5631834447	-0.282258
H	 0.9588021167	 1.8969446644	 0.1658321278	 0.128351
H	-0.6260398319	 2.0628658059	-0.6034038367	 0.114503
H	-0.5234322995	 1.7477175347	 1.1288069086	 0.106024
H	 0.3554352226	-0.5042249881	 0.7811729823	 0.078654
H	-1.1016406723	-0.3624762957	-0.183888209	 0.096054
H	 0.440192385	 1.2913763511	-2.5706562243	 0.129567
H	 0.7098159885	-0.179620505	-3.4980378304	 0.119479
H	-0.864069484	 0.1006227655	-2.7195735537	 0.11397
H	 2.514091314	-0.5490592237	-0.5363390743	 0.272112
H	 0.8989363673	-2.4226170496	-0.4187269847	 0.070591
H	-0.6911645556	-3.674565798	-1.8355057499	 0.108401
H	-0.9088742269	-2.2383994236	-2.9294286838	 0.113754
H	 1.5548370021	-2.2183685325	-3.4390834505	 0.12036
H	 1.8029308957	-3.6571537002	-2.3564727789	 0.107888
56.2795	104.2602	183.0241	206.3275	246.2768	256.2937	277.3881	301.8065	349.0876	380.4924	423.8918	487.0347	543.8143	699.8168	782.4568	787.9203	831.9448	859.4193	923.6624	945.0594	951.5851	997.2512	1004.6792	1056.7938	1065.9411	1079.4803	1100.0126	1144.4677	1165.971	1176.8434	1193.6523	1203.9629	1241.5062	1293.2646	1357.6872	1382.4375	1393.9676	1403.5414	1433.986	1468.7845	1477.5846	1492.7603	1497.1663	1504.3611	1510.415	1515.8814	3006.9917	3041.2548	3049.9331	3055.6463	3102.8309	3104.8049	3120.7129	3125.9125	3133.6711	3135.5836	3139.0583	3211.5957	3225.72	3805.3612
CCC(C)(O)C1CC1	CC[C@@](C)(O)C1CC1	
InChI=1S/C7H14O/c1-3-7(2,8)6-4-5-6/h6,8H,3-5H2,1-2H3	InChI=1S/C7H14O/c1-3-7(2,8)6-4-5-6/h6,8H,3-5H2,1-2H3/t7-/m1/s1
