19
gdb 62313	3.84642	1.26465	1.10805	0.88	85.7	-0.2151	0.0399	0.2551	1139.6616	0.157789	-348.635838	-348.627453	-348.626509	-348.668412	33.58	
C	-0.184056494	 1.6375080854	-0.056348214	-0.495624
C	 0.0416309273	 0.1169091357	 0.0141586581	 0.120013
C	-1.1254695036	-0.6196184576	-0.426420935	 0.26974
C	-2.1003643058	-1.221437737	-0.7943204718	-0.452123
C	 1.3085295104	-0.6733254612	-0.3290370922	-0.092708
C	 2.6689252591	-0.1201889271	 0.1765700659	-0.074114
C	 2.6218037381	 1.1488538922	 0.9831003453	-0.309472
C	 2.1379201018	-0.1329646994	 1.6043257378	-0.074094
C	 0.7809730413	-0.685951965	 1.0893958754	-0.092711
H	 0.5184733061	 2.1218840558	-0.7384755121	 0.135286
H	-1.19127394	 1.8334786971	-0.4295789243	 0.128286
H	-0.101388115	 2.1070912639	 0.9265727311	 0.135278
H	-2.9625104907	-1.7486087352	-1.1196233956	 0.189847
H	 1.2576236845	-1.4647003607	-1.0656679461	 0.100264
H	 3.6029962894	-0.524275801	-0.1921763811	 0.092812
H	 3.6010145535	 1.4465557686	 1.3499312547	 0.110983
H	 1.9840647059	 1.9875535282	 0.7534604463	 0.115261
H	 2.6063998275	-0.5482967888	 2.487374781	 0.09281
H	 0.2656586642	-1.4884218938	 1.6012381763	 0.100268
78.3972	155.4199	183.8816	250.5354	291.7955	337.8232	427.3717	511.271	523.0884	567.7041	580.0765	644.8609	678.749	686.4738	728.8757	769.2621	846.1647	864.243	870.3862	923.5173	982.0635	985.7718	1015.8738	1017.8032	1031.9905	1056.3163	1079.7919	1085.8086	1095.236	1158.9733	1202.7153	1255.5726	1268.9761	1280.4968	1325.4773	1380.1892	1411.6866	1487.5407	1505.8408	1513.5709	2228.0932	3051.2558	3125.0291	3125.7966	3137.4426	3181.9205	3191.9346	3192.4573	3202.8292	3259.4768	3503.4351
CC1(C#C)C2C3CC3C12	C[C@@]1(C#C)[C@H]2[C@H]3C[C@H]3[C@@H]12	
InChI=1S/C9H10/c1-3-9(2)7-5-4-6(5)8(7)9/h1,5-8H,4H2,2H3	InChI=1S/C9H10/c1-3-9(2)7-5-4-6(5)8(7)9/h1,5-8H,4H2,2H3/t5-,6+,7-,8+,9+
