16
gdb 23586	4.49876	1.26725	1.20586	1.8193	73.02	-0.2408	0.0038	0.2445	1038.7948	0.125447	-437.78348	-437.776716	-437.775771	-437.814613	27.364	
O	-0.1574164846	 1.3648100136	 0.0814128349	-0.396417
N	 0.0387439115	-0.0296574584	-0.0116527229	-0.299201
C	-1.0636519536	-0.6418199225	-0.085682631	 0.509942
C	-2.5587514648	-0.3646138643	-0.0075959675	-0.043047
O	-3.0038149434	-0.8983050436	-1.2686725166	-0.269465
C	-2.6351088548	-2.2710687205	-1.0342249464	 0.088936
C	-3.5556882083	-2.6586274959	 0.1423561376	-0.248066
C	-2.660981037	-1.6688962126	 0.9031844098	-0.065655
C	-1.4264775801	-2.089840734	-0.0108520091	-0.182474
H	 0.7480845585	 1.6906717137	 0.1209173537	 0.306451
H	-3.005948616	 0.5987741618	 0.2144062964	 0.104541
H	-2.5626468248	-2.8203249188	-1.9704742649	 0.091578
H	-4.6218926722	-2.4538770696	 0.0240020375	 0.109258
H	-3.3873567756	-3.6807729004	 0.4909868657	 0.108043
H	-2.5981868656	-1.5566216144	 1.9826102799	 0.092693
H	-0.7452959491	-2.9102122242	 0.1928067228	 0.092884
118.2251	180.777	298.2573	387.9605	409.406	499.1096	506.3107	670.398	680.391	727.5869	780.1866	790.312	806.8205	855.8203	920.0712	923.7247	936.7016	976.1907	993.2064	1034.2436	1042.0553	1061.5957	1091.2397	1141.6428	1160.7957	1170.0042	1205.7865	1235.3847	1239.1436	1247.6316	1272.8878	1325.3873	1412.3645	1483.1681	1805.033	3065.2085	3128.5545	3147.3247	3154.2469	3175.4524	3184.8644	3819.2575
ON=C1C2OC3CC2C13	ON=C1[C@H]2O[C@@H]3C[C@H]2[C@H]13	
InChI=1S/C6H7NO2/c8-7-5-4-2-1-3(4)9-6(2)5/h2-4,6,8H,1H2	InChI=1S/C6H7NO2/c8-7-5-4-2-1-3(4)9-6(2)5/h2-4,6,8H,1H2/t2-,3+,4-,6-/m0/s1
