20
gdb 15727	3.32011	1.51881	1.21912	1.505	70.41	-0.2563	0.0684	0.3247	1048.4048	0.177719	-386.147281	-386.138483	-386.137539	-386.18156	32.173	
O	-0.1502703843	 1.4505435648	 0.1544596715	-0.429174
C	 0.0320518463	 0.0401556313	 0.078106279	-0.103077
C	-1.347453348	-0.5948275497	 0.0003145168	 0.047721
C	-2.1613628862	-0.2178177095	-1.2649054452	-0.197758
C	-3.0287354836	-1.4639319934	-1.6056581671	-0.199607
C	-2.7572297328	-2.4761844824	-0.4698561705	-0.233849
C	-1.3413153149	-2.1305852658	 0.0082076595	 0.101067
O	-0.3511540614	-2.5621253272	-0.9267294278	-0.443519
H	 0.7153610911	 1.8652383948	 0.1010402499	 0.284187
H	 0.6159401817	-0.2427297595	-0.807888809	 0.103389
H	 0.569890811	-0.3368203554	 0.9636246087	 0.077618
H	-1.9048559387	-0.2747799032	 0.8898549376	 0.076469
H	-2.7649723544	 0.6749709423	-1.0895666999	 0.103858
H	-1.4845883142	 0.0193997747	-2.0906535956	 0.103412
H	-4.0921969857	-1.2254823016	-1.6909981763	 0.0931
H	-2.7198025081	-1.8876924556	-2.5647721663	 0.103039
H	-3.4588641029	-2.3305820204	 0.3603764287	 0.0973
H	-2.8477294875	-3.521566085	-0.7862433066	 0.080371
H	-1.1218530386	-2.5376604119	 1.0065855092	 0.054318
H	-0.4294195688	-3.5163829173	-1.0207754967	 0.281136
24.7486	104.0649	152.547	179.6428	266.2733	287.3202	307.5927	361.3706	444.2891	489.9897	642.9143	708.8788	814.7714	836.735	852.8768	899.2735	904.5452	990.1417	1011.7567	1021.2173	1046.1894	1069.6338	1092.1842	1134.5751	1174.0223	1202.0288	1210.7892	1238.873	1257.5693	1280.3358	1304.649	1314.477	1325.9306	1335.9417	1362.7108	1381.0224	1424.0349	1457.3128	1481.8896	1486.8268	1508.5832	1522.8228	2965.17	2986.7171	3019.7596	3031.2118	3039.8071	3056.3152	3065.7664	3070.7632	3093.2654	3114.9395	3820.7188	3832.0008
OCC1CCCC1O	OC[C@H]1CCC[C@H]1O	
InChI=1S/C6H12O2/c7-4-5-2-1-3-6(5)8/h5-8H,1-4H2	InChI=1S/C6H12O2/c7-4-5-2-1-3-6(5)8/h5-8H,1-4H2/t5-,6-/m1/s1
