19
gdb 84237	2.46102	1.94357	1.3667	1.8721	82.09	-0.214	-0.036	0.178	991.0593	0.15884	-385.788095	-385.780256	-385.779312	-385.819856	31.828	
C	 0.1957659812	 1.420976695	-0.1280075215	-0.494266
C	-0.0117588983	-0.0575660983	 0.1108859841	 0.297506
C	-0.6991121103	-0.8515655382	-1.0954736278	-0.118778
C	-0.8657429309	-2.4198946536	-1.023928017	-0.270331
C	-0.9046978961	-2.1225457324	 0.4773570503	 0.054431
C	 0.2622158538	-2.1570049414	 1.1461563557	-0.161506
C	 0.8856037919	-0.7528440299	 1.1558590351	 0.060545
O	 2.260743304	-0.8155768043	 0.8204152391	-0.430819
C	-1.3617952554	-0.6734836977	 0.2407963723	-0.155287
H	 1.194542906	 1.6110455246	-0.5336421507	 0.12943
H	-0.5402140348	 1.8331835199	-0.8241433425	 0.116599
H	 0.1127539168	 1.9763482906	 0.8135901288	 0.121568
H	-0.9082782858	-0.2804003812	-1.9973528698	 0.091269
H	-1.8138399656	-2.6878559414	-1.5052767491	 0.107805
H	-0.0649920961	-3.0754204859	-1.3792038806	 0.097717
H	 0.940705042	-3.006350494	 1.126964831	 0.094845
H	 0.8570175798	-0.1902647623	 2.0983975661	 0.090126
H	 2.3239407364	-1.2427268999	-0.0423071465	 0.277687
H	-2.3026804486	-0.2062523794	 0.5022023929	 0.091461
124.2638	190.1182	229.2695	282.6052	322.2621	378.6444	391.8249	458.5851	555.9822	580.4346	610.2478	675.8009	769.3854	800.5154	829.2704	853.1142	879.3708	904.8426	930.7713	985.5512	1001.8374	1037.5482	1046.7077	1066.9881	1078.7123	1090.241	1093.7102	1154.5705	1194.3979	1228.4532	1244.2292	1249.1967	1270.9966	1300.8295	1362.1851	1411.9341	1420.2959	1488.4573	1498.8568	1501.3082	1601.5512	3017.083	3024.2052	3030.9252	3087.7456	3091.4224	3109.5369	3132.4365	3157.84	3192.0786	3783.7731
CC12C3CC(=CC1O)C23	C[C@@]12[C@H]3C[C]([CH][C@H]1O)[C@@H]23	
InChI=1S/C8H10O/c1-8-5-2-4(7(5)8)3-6(8)9/h3,5-7,9H,2H2,1H3	InChI=1S/C8H10O/c1-8-5-2-4(7(5)8)3-6(8)9/h3,5-7,9H,2H2,1H3/t5-,6+,7+,8+/m0/s1
