16
gdb 76066	2.24611	1.41944	1.20143	6.0418	71.01	-0.2652	-0.0479	0.2173	1109.2378	0.122372	-437.903953	-437.895022	-437.894078	-437.938027	32.176	
C	-0.1928990983	 1.4599433186	 0.0148791781	-0.485874
C	 0.0902108242	-0.0227834152	 0.0571465805	 0.423919
O	 0.3537254992	-0.5989378894	 1.0998896867	-0.341658
C	 0.0605934103	-0.7522991022	-1.2410326027	-0.221371
C	 0.8876504484	-2.0340884711	-1.3512267687	 0.135575
O	 1.669701492	-2.4715992024	-0.3185450108	-0.404854
C	-0.6225395856	-2.1428567204	-1.3291420833	-0.254585
C	-1.2999295901	-2.704078526	-0.1969301801	 0.315298
N	-1.8631517996	-3.1878738726	 0.689626459	-0.332476
H	 0.5177906004	 1.9617334495	-0.6518330661	 0.149227
H	-1.1942560384	 1.6393284206	-0.3929335204	 0.152567
H	-0.1202879041	 1.8810652001	 1.017676232	 0.155019
H	-0.0520892174	-0.1421501125	-2.1300823215	 0.111391
H	 1.3546374505	-2.2203158622	-2.3131627297	 0.132198
H	 1.3240171821	-2.0754745051	 0.5039398405	 0.319812
H	-1.1158703737	-2.3350394997	-2.2764172135	 0.14581
65.6026	115.0745	127.7071	139.2265	231.5637	266.8032	335.5156	397.8672	457.6937	518.9	597.9965	650.7004	661.2624	677.794	736.2533	772.2303	841.8147	944.5265	968.9841	998.8066	1052.3434	1058.9406	1121.438	1131.303	1194.1879	1237.8313	1344.9938	1363.3882	1378.5637	1403.4568	1460.8082	1472.6054	1485.7856	1760.1151	2357.9649	3036.4256	3096.6934	3159.1298	3163.5807	3167.6741	3179.9232	3581.8152
CC(=O)C1C(O)C1C#N	CC(=O)[C@H]1[C@@H](O)[C@H]1C#N	
InChI=1S/C6H7NO2/c1-3(8)5-4(2-7)6(5)9/h4-6,9H,1H3	InChI=1S/C6H7NO2/c1-3(8)5-4(2-7)6(5)9/h4-6,9H,1H3/t4-,5+,6-/m0/s1
