21
gdb 96180	2.22316	1.77523	1.13203	1.8854	76.85	-0.2341	0.066	0.3001	1124.5889	0.184623	-424.210391	-424.20226	-424.201316	-424.243044	31.673	
C	-0.0396244602	 1.5715007432	-0.075138267	-0.406601
C	 0.0183904913	 0.0416394658	-0.0216304942	-0.016054
C	 0.6442882534	-0.5584819526	-1.2863988568	-0.086778
O	 0.721353123	-1.9696194672	-1.1987053794	-0.243027
C	 1.6920637768	-2.3795013974	-0.2524262351	-0.100127
C	 1.3844683689	-1.8841627879	 1.175501088	 0.075855
O	 2.5765822959	-1.3814008851	 1.8291850782	-0.289482
C	 2.155043406	-0.0159230408	 1.6200199023	-0.101324
C	 0.7312944552	-0.4783477791	 1.2302874032	-0.034247
H	 0.963910491	 2.0087547556	-0.1257590702	 0.119207
H	-0.5945912447	 1.9147049578	-0.9547041221	 0.117286
H	-0.5358553829	 1.9793042847	 0.8114568488	 0.117848
H	-1.0097214316	-0.3427525238	 0.0146614821	 0.083753
H	 0.0255243042	-0.3337143616	-2.1608474189	 0.106067
H	 1.6474705866	-0.1335001251	-1.4674930329	 0.084531
H	 1.7204215153	-3.4714737358	-0.2966756169	 0.107939
H	 2.6881928239	-1.9998099413	-0.5317628627	 0.098618
H	 0.9053732505	-2.664695355	 1.7751470142	 0.080808
H	 2.252472406	 0.5888315126	 2.5276027751	 0.106858
H	 2.7247396567	 0.4660202626	 0.8126216394	 0.095774
H	 0.0670841648	-0.3957717996	 2.0948629147	 0.083094
101.3527	126.7493	215.3222	219.522	294.8292	343.0773	405.1681	426.6456	469.8174	531.3554	613.2991	707.9487	816.3817	875.7223	908.3236	939.1413	952.6008	972.3362	995.428	1005.1548	1029.9525	1060.9732	1091.9335	1123.7093	1138.5423	1156.4374	1171.1736	1212.3444	1237.9788	1262.5544	1274.7727	1318.7511	1326.5884	1341.5652	1357.2156	1362.1891	1385.676	1403.7223	1408.0771	1425.0179	1491.0231	1497.1886	1498.1534	1502.9878	1524.1312	2952.1299	2977.6662	2998.2759	3014.7168	3029.5159	3046.4104	3058.2727	3073.8815	3076.9158	3093.2513	3096.3132	3100.0924
CC1COCC2OCC12	C[C@H]1COC[C@H]2OC[C@@H]12	
InChI=1S/C7H12O2/c1-5-2-8-4-7-6(5)3-9-7/h5-7H,2-4H2,1H3	InChI=1S/C7H12O2/c1-5-2-8-4-7-6(5)3-9-7/h5-7H,2-4H2,1H3/t5-,6-,7+/m0/s1
