23
gdb 62701	2.6994	1.64448	1.45491	0.2182	87.82	-0.2482	0.0869	0.335	1055.1718	0.207656	-351.146908	-351.138837	-351.137893	-351.178607	33.844	
C	-0.2238931476	 1.5926568286	 0.0337527649	-0.4593
C	 0.0117036324	 0.0813919829	-0.0044268948	 0.330928
C	-1.2860935408	-0.6457364205	 0.3693027829	-0.430507
C	 0.6118271783	-0.5483006455	-1.2726272812	-0.088154
C	 2.1279599026	-0.4240282735	-1.3548889092	-0.048469
C	 2.8749691685	 0.6454420242	-0.5619737438	-0.242061
C	 2.430836106	 0.3974363228	 0.9075852836	-0.223552
C	 1.2225332943	-0.5456785539	 0.7936354304	-0.074856
C	 1.515722122	-1.4451430342	-0.4421558882	-0.081787
H	 0.6596723178	 2.1701746241	-0.2433910989	 0.114537
H	-1.0249134393	 1.8655333252	-0.6635836977	 0.108428
H	-0.5388110519	 1.9176278449	 1.0327513528	 0.108063
H	-2.0879241689	-0.4083038454	-0.3398625811	 0.105376
H	-1.1490253246	-1.7314815071	 0.3684495045	 0.112127
H	-1.6270299934	-0.346586996	 1.3673635426	 0.105661
H	 0.038898992	-0.8115695378	-2.1571934492	 0.069389
H	 2.549352711	-0.765108075	-2.2952461349	 0.077249
H	 3.9560069433	 0.5137862727	-0.6776944165	 0.093727
H	 2.646756753	 1.65941676	-0.905012263	 0.100258
H	 3.2307503305	-0.0996401505	 1.4676009876	 0.093624
H	 2.1917000214	 1.3227692997	 1.4409232668	 0.09508
H	 0.9460704702	-1.0295718151	 1.7321062491	 0.055956
H	 1.6730204631	-2.5149153106	-0.4742288765	 0.078282
194.0012	202.9857	228.4621	246.009	277.7207	341.4434	357.1171	427.0231	502.5863	595.9724	654.232	732.559	757.6181	783.2555	819.6271	839.3832	879.8283	901.6921	924.4318	944.6	952.6539	977.885	999.8873	1003.1865	1032.391	1047.3738	1063.9181	1066.9518	1109.4583	1144.8939	1201.5081	1209.4644	1227.8252	1234.6333	1241.7983	1266.5843	1274.534	1311.5728	1330.752	1359.4361	1398.4767	1404.8658	1420.2356	1478.615	1487.1717	1489.0549	1501.4402	1509.8225	1515.4499	3018.9216	3027.4034	3035.0581	3045.8083	3068.5231	3077.7364	3084.0747	3088.3547	3092.2809	3101.003	3131.7873	3144.7025	3163.7949	3198.4527
CC1(C)C2C3CCC1C23	CC1(C)[C@H]2[C@H]3CC[C@@H]1[C@@H]23	
InChI=1S/C9H14/c1-9(2)6-4-3-5-7(6)8(5)9/h5-8H,3-4H2,1-2H3	InChI=1S/C9H14/c1-9(2)6-4-3-5-7(6)8(5)9/h5-8H,3-4H2,1-2H3/t5-,6+,7-,8-/m0/s1
