23
gdb 121986	5.68401	0.54106	0.51655	3.1292	84.92	-0.2499	-0.0205	0.2294	2159.7385	0.201721	-425.437129	-425.425639	-425.424695	-425.475465	39.278	
C	 0.0507951853	 1.5096751952	 0.0154693519	-0.385543
C	 0.0498402571	-0.0093774512	-0.0032787717	-0.029528
O	 0.6957051738	-0.4756065084	 1.1644167797	-0.247068
C	 0.7504871252	-1.880561275	 1.2549507057	-0.052267
C	 1.4140702338	-2.2657726386	 2.5779836874	-0.009672
C	 0.6210215251	-1.7334881157	 3.7784214016	-0.389692
C	 1.6032423664	-3.7936807604	 2.6487620401	-0.281699
C	 2.4838162857	-4.2105256548	 3.8051989931	 0.16078
O	 2.2069709775	-5.0472867276	 4.6246253755	-0.240311
H	 1.074901584	 1.8924934142	 0.0430608355	 0.127134
H	-0.4431847885	 1.9022132096	-0.878286946	 0.11595
H	-0.4781279531	 1.8828380441	 0.8970432839	 0.127227
H	-0.9824380572	-0.3963548336	-0.0457130728	 0.08694
H	 0.5700815328	-0.3859532651	-0.9005385333	 0.085643
H	-0.2658337254	-2.3111148454	 1.2020932813	 0.084647
H	 1.3219805457	-2.2978625693	 0.4073047255	 0.080984
H	 2.4079276334	-1.7962436667	 2.5799784259	 0.088146
H	-0.3698689367	-2.2006976295	 3.8258237796	 0.115695
H	 1.1313775779	-1.9468586256	 4.722946548	 0.120117
H	 0.4841990576	-0.6537336998	 3.6938568067	 0.135944
H	 0.6461578039	-4.3188328553	 2.7310166785	 0.119624
H	 2.102563341	-4.1405396648	 1.7312476978	 0.11619
H	 3.4597270447	-3.6693617462	 3.8475006262	 0.070758
42.1822	56.0281	68.6932	88.5515	114.9473	154.8116	219.3307	235.8325	243.5724	284.9002	306.6945	406.2841	449.7736	503.7643	549.1447	775.9547	820.3159	870.5082	904.062	930.5536	941.0522	993.4993	1021.9744	1047.3605	1120.3274	1155.3003	1156.3807	1164.1603	1175.2679	1193.1184	1227.2067	1267.928	1282.027	1295.5496	1352.6425	1376.7187	1388.7002	1404.2711	1411.0886	1429.5099	1450.8715	1460.9355	1483.3924	1489.3958	1499.0748	1506.0771	1512.2218	1536.7281	1836.9289	2844.0368	2936.475	2956.4135	2965.2708	2978.5631	3003.8694	3014.5461	3033.7873	3045.43	3088.2232	3096.746	3120.0674	3121.798	3134.5025
CCOCC(C)CC=O	CCOC[C@@H](C)CC=O	
InChI=1S/C7H14O2/c1-3-9-6-7(2)4-5-8/h5,7H,3-4,6H2,1-2H3	InChI=1S/C7H14O2/c1-3-9-6-7(2)4-5-8/h5,7H,3-4,6H2,1-2H3/t7-/m0/s1
