20
gdb 104821	1.99081	1.51774	1.14417	4.0276	75.23	-0.2517	0.0265	0.2783	1178.3344	0.170572	-440.308555	-440.298901	-440.297956	-440.343118	35.341	
C	 1.0459155889	-0.8437226675	 1.3195734339	-0.398888
C	 0.2313456084	-0.1861606589	 0.1996781661	-0.226875
C	 0.8236125299	-0.362858585	-1.2022874726	 0.12681
C	 2.1677738887	 0.3549905178	-1.4012204869	-0.10961
O	 2.0239348032	 1.7482031988	-1.2160620362	-0.424249
C	 0.71744401	-1.7960033835	-1.8225638236	-0.227041
N	-0.2262839855	-1.2335986192	-2.7988828401	-0.330927
C	-0.1249581284	 0.0551511876	-2.352719038	 0.416798
O	-0.5485190993	 1.1135651208	-2.7539720372	-0.391592
H	 1.179142802	-1.9179901736	 1.1487609295	 0.111579
H	 2.0383639356	-0.3942185663	 1.4178414682	 0.129838
H	 0.5374341589	-0.7244169255	 2.2809335044	 0.120547
H	-0.7882089102	-0.5910869339	 0.2039910428	 0.098707
H	 0.1436842714	 0.88782738	 0.3899490555	 0.127268
H	 2.9126344497	 0.014438698	-0.6743235108	 0.109377
H	 2.5602814059	 0.1170041681	-2.4042756448	 0.085731
H	 1.2997179867	 2.0356692369	-1.7903524072	 0.299502
H	 1.6419772489	-2.1778059013	-2.2685888195	 0.115045
H	 0.2809049318	-2.557584473	-1.1700025944	 0.115729
H	-0.6191614867	-1.6130775101	-3.6482042791	 0.252252
74.1762	108.8619	135.0628	159.6552	186.8359	247.9475	274.97	319.2905	338.9671	426.9401	486.4958	527.4823	582.8554	691.5745	749.4011	785.133	796.0329	890.1155	929.8361	973.2275	993.431	1022.2363	1047.4688	1077.9933	1119.6464	1155.2252	1180.6354	1203.9327	1234.2401	1260.3474	1302.1957	1328.6739	1366.4134	1393.3126	1393.6281	1411.2504	1450.5155	1481.5609	1496.2926	1503.0592	1517.6206	1521.5697	1861.8925	2959.2299	3032.0503	3034.7494	3040.3014	3068.07	3083.5307	3089.9942	3104.2814	3113.7674	3602.5315	3735.9351
CCC1(CO)CNC1=O	CC[C@@]1(CO)CNC1=O	
InChI=1S/C6H11NO2/c1-2-6(4-8)3-7-5(6)9/h8H,2-4H2,1H3,(H,7,9)	InChI=1S/C6H11NO2/c1-2-6(4-8)3-7-5(6)9/h8H,2-4H2,1H3,(H,7,9)/t6-/m0/s1
