19
gdb 103480	2.30571	1.46454	1.24387	1.4052	71.19	-0.2161	0.0485	0.2646	1102.7408	0.158607	-460.117971	-460.109276	-460.108331	-460.150814	34.367	
O	 0.1486676841	 0.8684348055	 0.8132167766	-0.42402
C	-0.1541029092	 0.2885848809	-0.4610999817	-0.174397
C	-1.4523835575	-0.4791778748	-0.376189861	 0.326977
O	-2.4678259705	 0.3108417253	 0.2180588589	-0.494238
C	-2.0173177217	-1.4176508328	-1.4091511789	-0.21426
C	-0.9237834805	-2.3215285298	-1.989693404	-0.238146
C	-0.5863769696	-2.8565431924	-0.5561463305	-0.299658
C	-1.6388899444	-1.9246914597	 0.0160936062	 0.370175
O	-2.3969554117	-2.2634131969	 1.1107912642	-0.466248
H	 0.3844916265	 0.1498160606	 1.4107328449	 0.293166
H	-0.2617899445	 1.1358549887	-1.1466510659	 0.123202
H	 0.6692249346	-0.338510689	-0.8218886323	 0.105807
H	-1.9950987099	 0.8651911278	 0.8566896221	 0.291822
H	-2.9782754794	-1.2026819034	-1.8621055557	 0.096802
H	-1.3339819296	-3.1042745375	-2.6302390845	 0.112864
H	-0.1103187549	-1.8282878637	-2.5313336032	 0.0974
H	-0.8741138287	-3.9036491714	-0.4386704897	 0.120781
H	 0.4400785346	-2.7376549421	-0.190799973	 0.087154
H	-2.8907193077	-1.4598086951	 1.3358126376	 0.284818
100.2429	154.7712	222.5809	244.5988	267.7369	328.3695	373.1559	403.5199	447.2625	467.7007	503.7111	539.6037	620.3121	681.1709	683.8513	769.3516	806.0668	896.6754	933.5605	943.5511	973.7103	1003.9692	1032.149	1047.4862	1088.219	1114.0521	1149.7602	1196.2976	1211.3905	1222.8977	1246.613	1273.1949	1288.4441	1353.0933	1370.3262	1406.6968	1420.543	1480.0959	1489.516	1498.7503	1516.8925	3033.8388	3037.4721	3051.2159	3085.1335	3098.8661	3116.438	3181.6759	3711.575	3729.1651	3803.2733
OCC1(O)C2CCC12O	OC[C@@]1(O)[C@H]2CC[C@@]12O	
InChI=1S/C6H10O3/c7-3-6(9)4-1-2-5(4,6)8/h4,7-9H,1-3H2	InChI=1S/C6H10O3/c7-3-6(9)4-1-2-5(4,6)8/h4,7-9H,1-3H2/t4-,5-,6+/m0/s1
