21
gdb 115658	3.26466	1.08518	0.95353	2.7891	78.07	-0.2453	0.0585	0.3038	1307.6043	0.182825	-424.189887	-424.181003	-424.180059	-424.224021	33.379	
O	 0.0621441886	 1.4173022947	-0.6496361982	-0.422655
C	-0.0039561949	 0.2434885871	 0.1357741061	-0.067571
C	-1.365257944	-0.415543716	-0.0240970239	 0.036971
O	-1.6109658714	-0.6757571712	-1.4336322044	-0.31147
C	-1.6899484689	-2.0987598706	-1.1972676453	-0.124528
C	-1.5099241147	-1.9091890523	 0.3244816494	 0.294831
C	-0.4588265859	-2.755461239	 1.0904151668	-0.289786
C	-1.6215205329	-3.5890704494	 1.6959131471	-0.215507
C	-2.59638472	-2.4527500018	 1.2844567428	-0.286256
H	-0.2392341291	 1.1557630329	-1.5292180977	 0.292935
H	 0.7871646067	-0.4722381589	-0.142355539	 0.081882
H	 0.1631445018	 0.5394413032	 1.1775596983	 0.104782
H	-2.1487896603	 0.2356247128	 0.3867568955	 0.078076
H	-2.6553173567	-2.5092138121	-1.5196546513	 0.102806
H	-0.8824984552	-2.6436300982	-1.7042844868	 0.100224
H	 0.2892952232	-3.2817403529	 0.4913436299	 0.10161
H	 0.0608654182	-2.1683374495	 1.8538344071	 0.107882
H	-1.8023915398	-4.5082015573	 1.1319080875	 0.106699
H	-1.5606024272	-3.8414730178	 2.756474991	 0.102295
H	-2.7833837418	-1.7562148511	 2.1082901928	 0.104988
H	-3.5571159058	-2.7326449728	 0.8433918424	 0.101792
65.8644	99.7269	116.8566	151.4449	252.3722	299.4042	347.2552	413.8997	478.9899	482.355	573.8072	690.3908	780.6276	826.1902	873.9976	881.6761	904.1706	926.8479	937.9869	970.6678	1014.8897	1027.6812	1048.4305	1083.2762	1099.4521	1147.7891	1173.5042	1188.4033	1193.3305	1212.8811	1220.5985	1258.0332	1269.868	1274.7577	1285.5816	1307.0917	1334.4861	1366.5584	1396.1583	1438.2027	1472.95	1484.3414	1498.9792	1504.6215	1523.4892	2968.2448	3002.0652	3016.5158	3045.3435	3047.8961	3051.5135	3063.0031	3067.4311	3094.1774	3099.5781	3120.496	3774.7199
OCC1OCC11CCC1	OC[C@H]1OCC21CCC2	
InChI=1S/C7H12O2/c8-4-6-7(5-9-6)2-1-3-7/h6,8H,1-5H2	InChI=1S/C7H12O2/c8-4-6-7(5-9-6)2-1-3-7/h6,8H,1-5H2/t6-/m1/s1
