19
gdb 40736	3.15976	1.39066	1.33082	1.4679	73.96	-0.2315	0.0862	0.3177	1049.3963	0.16043	-422.987752	-422.980129	-422.979185	-423.020149	29.703	
C	 0.5733777954	 1.3267128626	 0.4058289672	-0.173971
O	 1.4199357341	 0.1813538561	 0.227524096	-0.23036
C	 0.0057236582	 0.0005524993	 0.1504817472	 0.069624
C	-0.6604495874	-0.8289709218	 1.2327016804	 0.075789
C	-0.1969974753	-2.3172251946	 1.2328668475	-0.274156
C	 0.4690850214	-2.5095005589	 2.5866046102	-0.06269
C	 1.6631986417	-1.6276870058	 2.916063562	-0.3279
C	 0.274911929	-1.2287803986	 3.3343604637	 0.106317
O	-0.404475147	-0.2924625232	 2.5325634073	-0.271122
H	 0.5398919124	 1.716189805	 1.4191592383	 0.135561
H	 0.6172461201	 2.0615635937	-0.3962762985	 0.112308
H	-0.3584246016	-0.2239940524	-0.8545215624	 0.092014
H	-1.743709212	-0.7623796194	 1.0544159944	 0.083576
H	-1.056462622	-2.9867701899	 1.1375762302	 0.106464
H	 0.4770185085	-2.5206734926	 0.3953409651	 0.118688
H	 0.3745736032	-3.4720603053	 3.0749669616	 0.088886
H	 2.3398051578	-1.9823518128	 3.6867520031	 0.106264
H	 2.1186516086	-1.0591392234	 2.1130427524	 0.148662
H	-0.0175084051	-1.1669786379	 4.3764083741	 0.096045
90.1333	101.1347	218.8251	224.0399	303.4435	425.1713	457.5228	603.8338	683.3232	713.7925	754.8608	774.7548	812.8587	855.6717	895.5759	922.3134	949.4023	969.3924	1006.9484	1019.5257	1043.8488	1067.6674	1090.0093	1094.8812	1112.1031	1115.5953	1161.1774	1167.029	1174.3925	1208.8725	1220.8714	1290.4965	1301.0714	1307.8974	1345.9339	1378.1661	1392.2779	1431.479	1474.7332	1498.0395	1518.0068	2993.2578	3053.2781	3087.5293	3094.206	3100.0439	3131.081	3171.553	3181.2853	3201.4523	3229.759
C1OC1C1CC2CC2O1	C1O[C@H]1[C@H]1C[C@H]2C[C@H]2O1	
InChI=1S/C7H10O2/c1-4-2-6(7-3-8-7)9-5(1)4/h4-7H,1-3H2	InChI=1S/C7H10O2/c1-4-2-6(7-3-8-7)9-5(1)4/h4-7H,1-3H2/t4-,5-,6-,7-/m1/s1
