21
gdb 84033	2.69012	1.40375	1.14966	2.201	77.87	-0.2505	0.0763	0.3268	1152.6856	0.185005	-424.208359	-424.200267	-424.199323	-424.240701	32.124	
C	-0.1621542217	 1.5866033561	-0.0231251556	-0.413316
C	 0.0327211769	 0.0852591243	 0.0374871503	-0.040511
C	 1.3276790016	-0.6206986069	-0.3176431918	-0.035399
C	 2.6168809973	 0.1065079627	-0.6471420343	-0.119129
O	 3.7337052628	-0.4246645021	 0.0609273245	-0.230394
C	 3.8762727971	 0.055510286	 1.3704058786	 0.018807
O	 2.9549278284	-0.4351581945	 2.3063527973	-0.230394
C	 1.6379893234	 0.0933276886	 2.1752859743	-0.119133
C	 0.8317435359	-0.6273628276	 1.1122652647	-0.0354
H	 0.7195745447	 2.1524956671	 0.2854906844	 0.120594
H	-0.4098253199	 1.9011608345	-1.0429465607	 0.120884
H	-0.9891953909	 1.8933556562	 0.6266654974	 0.120884
H	-0.8583506202	-0.454883468	-0.2740764201	 0.088478
H	 1.2221655236	-1.5637707219	-0.8461716608	 0.089072
H	 2.8527247602	-0.0101070551	-1.7095332654	 0.108972
H	 2.5381246927	 1.1853263443	-0.4500154343	 0.087949
H	 4.8579353583	-0.2837798768	 1.7092887642	 0.11354
H	 3.8373750474	 1.1625141032	 1.3620888839	 0.068502
H	 1.165734356	-0.0328306939	 3.1545487341	 0.108972
H	 1.6950859579	 1.1739773169	 1.9807427796	 0.08795
H	 0.4243515684	-1.5744905331	 1.4540864199	 0.089072
125.2492	156.8914	214.5423	268.2648	281.859	357.1953	369.4703	455.2201	457.7627	524.9485	598.7677	623.939	758.9077	821.8361	845.7197	921.7587	938.0441	969.9385	970.3326	1005.3411	1023.0098	1059.2875	1072.1982	1117.8069	1121.5346	1152.6989	1183.7081	1184.2167	1199.5775	1270.4365	1283.8471	1309.5248	1348.5119	1363.8388	1379.6086	1408.2703	1415.4782	1422.1939	1449.7402	1451.2485	1487.8385	1494.6351	1500.3077	1502.5875	1511.7973	2913.3635	2996.1133	3005.9109	3035.3716	3072.6708	3074.4435	3089.5981	3104.36	3113.9439	3130.8933	3138.2407	3153.0666
CC1C2COCOCC12	C[C@H]1[C@H]2COCOC[C@@H]12	
InChI=1S/C7H12O2/c1-5-6-2-8-4-9-3-7(5)6/h5-7H,2-4H2,1H3	InChI=1S/C7H12O2/c1-5-6-2-8-4-9-3-7(5)6/h5-7H,2-4H2,1H3/t5-,6+,7-
