16
gdb 46825	2.60185	1.64474	1.18775	4.149	76.	-0.241	0.0201	0.2612	1041.3074	0.124987	-400.74744	-400.739547	-400.738603	-400.77973	30.465	
O	-0.0447799793	-0.0246571797	-0.0742685561	-0.36462
C	-0.0098185977	 1.1795704199	 0.0100170436	 0.355373
N	-1.0850021062	 2.0105567644	 0.2133068063	-0.324922
C	-0.832106377	 3.4291835973	 0.031173885	-0.182454
C	 0.6898296487	 3.5101170839	 0.009380966	-0.097917
C	 1.4184264185	 2.9361719101	 1.1795579703	-0.307551
C	 1.2185509915	 2.0781438878	-0.0717615469	 0.056349
C	 2.3331116119	 1.6749263828	-0.8677245605	 0.19216
C	 3.2744161599	 1.3448222246	-1.5385149535	-0.390198
H	-2.011381747	 1.6191519265	 0.267786693	 0.255407
H	-1.253595071	 3.7993420104	-0.9132547131	 0.117264
H	-1.2631817158	 4.021686015	 0.8478215259	 0.117892
H	 1.1561775048	 4.2943037152	-0.5722339824	 0.115092
H	 2.4315098152	 3.278763255	 1.3527605631	 0.136856
H	 0.8632169859	 2.6606225141	 2.0703855676	 0.131441
H	 4.1010975775	 1.0397094128	-2.1306314884	 0.18983
108.6557	136.2702	168.6307	250.511	363.1566	392.7309	467.5509	496.6416	531.0483	586.7146	600.4692	656.1111	665.1607	716.7418	773.3462	831.4218	872.3387	909.2222	954.9092	1027.667	1061.9648	1073.4941	1081.106	1115.9753	1182.8542	1218.2684	1257.208	1309.6424	1335.7404	1400.6254	1446.2245	1485.0238	1529.1649	1836.2138	2244.8658	3007.0569	3042.0285	3135.3777	3204.126	3232.0954	3504.3658	3650.1402
O=C1NCC2CC12C#C	O=C1NC[C@H]2C[C@@]12C#C	
InChI=1S/C7H7NO/c1-2-7-3-5(7)4-8-6(7)9/h1,5H,3-4H2,(H,8,9)	InChI=1S/C7H7NO/c1-2-7-3-5(7)4-8-6(7)9/h1,5H,3-4H2,(H,8,9)/t5-,7-/m1/s1
