16
gdb 26007	4.92871	1.00498	0.83911	3.1058	73.51	-0.2029	0.0133	0.2162	1322.837	0.124169	-437.951043	-437.942482	-437.941538	-437.98594	30.695	
C	 0.0317101451	 1.4263852551	-2.3206426243	-0.48296
C	 0.0779046006	-0.066615892	-2.5449929153	 0.411547
O	 0.2718074634	-0.6084079694	-3.6006751639	-0.331367
O	-0.1340982231	-0.7045645809	-1.3666448852	-0.271364
C	-0.1481847311	-2.0820661288	-1.2615055735	 0.336575
C	-0.3682404567	-2.6748019963	-0.0385083048	-0.1875
N	-0.3257760086	-4.0305519931	-0.2448214251	-0.233097
C	-0.0848777437	-4.2970441798	-1.5653908115	-0.066832
C	 0.0329905354	-3.1013664547	-2.2380046184	-0.268477
H	-0.9394316159	 1.7155158275	-1.9089488351	 0.149535
H	 0.7940871311	 1.7218958525	-1.59425691	 0.149541
H	 0.2016288762	 1.9376841049	-3.2672309362	 0.147278
H	-0.5459998872	-2.2414131874	 0.9306356372	 0.123499
H	-0.4536502245	-4.7219178001	 0.4718862454	 0.265137
H	-0.0156004094	-5.3104374748	-1.9258119875	 0.122361
H	 0.2227805383	-2.9628222427	-3.2854421416	 0.136126
25.82	61.3139	96.9777	178.617	333.1639	350.2987	362.5345	452.7333	585.2378	592.7754	631.9219	640.8503	681.7225	738.4553	759.8176	846.8593	895.5651	916.964	986.3093	1029.8542	1059.0628	1077.2517	1091.8184	1165.1701	1258.9419	1272.46	1314.8396	1393.2751	1410.8843	1469.7446	1471.9834	1476.0691	1523.2338	1607.2126	1830.5569	3056.6557	3121.1675	3169.5422	3267.6523	3281.6861	3321.6431	3695.2894
CC(=O)OC1=CNC=C1	CC(=O)Oc1c[nH]cc1	
InChI=1S/C6H7NO2/c1-5(8)9-6-2-3-7-4-6/h2-4,7H,1H3	InChI=1S/C6H7NO2/c1-5(8)9-6-2-3-7-4-6/h2-4,7H,1H3
