18
gdb 72873	2.95279	1.43467	1.15277	3.4417	73.01	-0.232	-0.0297	0.2023	1092.4163	0.146133	-439.04469	-439.036197	-439.035253	-439.078021	31.573	
C	-0.3381092004	 1.5681431346	-0.0445119289	-0.482156
C	-0.0593316258	 0.0937369751	 0.0470286234	 0.442336
C	-1.2039254214	-0.9282168514	 0.2596408306	-0.215104
N	-0.3358053345	-1.7184921825	 1.1866326569	-0.323103
C	 0.7133144105	-0.6802166625	 1.1540002533	-0.132477
C	 1.7510677316	-0.9504135619	 0.026184409	 0.035047
O	 0.8904200298	-0.3556612546	-0.9548226045	-0.319388
C	 3.0480957044	-0.202445671	 0.23335038	 0.133592
O	 3.2708165948	 0.91624842	-0.1500452833	-0.237798
H	 0.6010910931	 2.1264689638	-0.0545027633	 0.151413
H	-0.8765615967	 1.7885393641	-0.9734274259	 0.132795
H	-0.9541774636	 1.9056799779	 0.794771227	 0.114871
H	-2.0867621024	-0.4870965937	 0.7387135911	 0.09881
H	-1.5127106408	-1.4770446523	-0.6350277334	 0.116478
H	-0.7390576326	-1.8519084039	 2.1056298646	 0.225474
H	 1.0573134266	-0.2722718231	 2.1057753493	 0.085203
H	 1.9451150129	-2.014521318	-0.1563949807	 0.101309
H	 3.7925159446	-0.7719333106	 0.8397064348	 0.072701
69.6224	108.0961	199.8459	210.0203	242.9936	288.2692	332.0852	380.8583	415.6282	608.9516	653.3968	708.725	810.3514	830.3053	843.9069	903.9117	926.6038	944.8298	952.7844	1001.4185	1027.3592	1047.0391	1079.6837	1134.6594	1138.5505	1166.7134	1202.9769	1215.5403	1259.5718	1298.2918	1344.2858	1372.9468	1385.6004	1409.5979	1413.8957	1478.3412	1492.1553	1496.6828	1831.8989	2848.7314	3021.4328	3035.3588	3041.5986	3086.3295	3096.6071	3101.9668	3130.0386	3554.4973
CC12CNC1C(O2)C=O	C[C@]12CN[C@H]1[C@@H](O2)C=O	
InChI=1S/C6H9NO2/c1-6-3-7-5(6)4(2-8)9-6/h2,4-5,7H,3H2,1H3	InChI=1S/C6H9NO2/c1-6-3-7-5(6)4(2-8)9-6/h2,4-5,7H,3H2,1H3/t4-,5-,6-/m0/s1
