16
gdb 77429	1.92434	1.68822	1.67394	1.9782	64.21	-0.2188	0.0574	0.2762	963.0089	0.122307	-474.907934	-474.899714	-474.89877	-474.940122	32.217	
O	 0.1208607744	 1.3966652373	-0.0649682853	-0.425324
C	-0.0777878908	 0.0291562934	 0.0618603973	-0.032062
C	-0.4597034702	-0.7825614453	 1.2797396666	 0.254686
O	 0.3145168567	-1.7898184144	 1.8186720896	-0.44937
C	-1.6499919683	-0.1759624722	 2.0819827076	-0.11389
N	-2.0529734316	 1.1308946845	 1.4795626711	-0.373662
C	-2.5033330375	-0.1631832272	 0.8831404945	-0.11384
C	-1.3617018985	-0.7689988951	 0.0125313536	 0.254762
O	-1.6276845184	-1.7605307875	-0.9097276857	-0.449393
H	-0.6015963177	 1.7937870856	 0.4535555343	 0.299197
H	 0.6892327099	-0.51788983	-0.4898696593	 0.108438
H	 1.1731105571	-1.4202185314	 2.0542892341	 0.293541
H	-1.891402796	-0.4290795934	 3.1060174956	 0.108362
H	-2.8220431084	 1.511732426	 2.0310225009	 0.236629
H	-3.5524494849	-0.4042042431	 0.7724294006	 0.108369
H	-1.5639409459	-1.3792661172	-1.7928264255	 0.293557
139.0631	202.6972	246.4279	257.0355	269.5257	285.0301	346.2879	379.1843	446.6344	567.1037	607.0212	640.5024	698.4414	740.2377	763.2421	773.8033	832.1957	845.4243	901.3501	944.893	1034.9078	1074.2271	1092.3401	1093.7376	1127.4208	1163.1471	1241.9006	1253.6307	1294.53	1296.0857	1313.2767	1340.2866	1351.3292	1451.367	1516.7633	3106.3273	3198.7172	3211.4392	3462.7416	3602.7042	3786.6075	3786.8196
OC1C2(O)C3NC3C12O	O[C@H]1[C@@]2(O)[C@H]3N[C@H]3[C@@]12O	
InChI=1S/C5H7NO3/c7-3-4(8)1-2(6-1)5(3,4)9/h1-3,6-9H	InChI=1S/C5H7NO3/c7-3-4(8)1-2(6-1)5(3,4)9/h1-3,6-9H/t1-,2+,3-,4-,5+
