16
gdb 29502	3.22495	1.59263	1.07317	1.3808	79.94	-0.1715	-0.0004	0.1711	1059.2777	0.126387	-400.78321	-400.775742	-400.774798	-400.814753	29.51	
O	 0.08665924	 1.374873405	-0.0994899339	-0.45026
C	 0.057707344	 0.0104413896	-0.0143434419	 0.156185
C	 0.0194882395	-0.8205516518	-1.1216365614	-0.166672
N	-0.0017536195	-2.1352282258	-0.673019143	-0.399811
C	 0.0223705507	-2.1265283644	 0.6872290433	 0.326983
C	 0.0595320533	-0.8162191152	 1.1335094911	 0.137184
C	 0.0858923938	-0.8299006953	 2.6377241017	-0.434122
C	 0.058034901	-2.3237944121	 2.9400794637	-0.085354
C	 0.0213825379	-3.0518039425	 1.8028183229	-0.189835
H	 0.1102183772	 1.7309448083	 0.7926864268	 0.295956
H	 0.0061930464	-0.5781935369	-2.1705492759	 0.118703
H	-0.0298818603	-2.9422187635	-1.2696866237	 0.258621
H	 0.9828021718	-0.3611838812	 3.0669877805	 0.121556
H	-0.7735159444	-0.3221175443	 3.0981548032	 0.121564
H	 0.0672164377	-2.7179862623	 3.9474486013	 0.094741
H	-0.0039501691	-4.1319065478	 1.7353617154	 0.09456
163.843	194.9953	216.5898	266.4223	334.6929	390.7153	457.7755	526.1712	598.5248	606.8151	659.0375	664.9424	690.3973	732.0767	787.2536	856.3095	923.7504	928.9569	936.6726	1040.4375	1097.7443	1116.9193	1135.2917	1155.6196	1207.1029	1265.975	1297.8819	1343.4311	1376.4702	1433.6193	1459.9581	1526.9461	1554.499	1601.9692	1623.4076	3010.6664	3033.7691	3207.4281	3232.0951	3278.2887	3690.8368	3851.0509
OC1=CNC2=C1CC=C2	Oc1c[nH]c2c1CC=C2	
InChI=1S/C7H7NO/c9-7-4-8-6-3-1-2-5(6)7/h1,3-4,8-9H,2H2	InChI=1S/C7H7NO/c9-7-4-8-6-3-1-2-5(6)7/h1,3-4,8-9H,2H2
