25
gdb 96441	1.97115	1.74613	1.1857	0.1679	91.39	-0.2533	0.0784	0.3316	1196.4029	0.232338	-352.363267	-352.35466	-352.353716	-352.3957	35.63	
C	-0.2216954225	 1.5392871728	 0.0221257338	-0.408344
C	-0.0299575191	 0.0150038229	 0.0199817385	 0.015527
C	 0.412126226	-0.5311463369	-1.3598211309	-0.190706
C	 1.6919432807	 0.0600495912	-1.9788242327	-0.18295
C	 3.0179158031	-0.2286351676	-1.2553286914	-0.174834
C	 3.1238084686	 0.3777989433	 0.1544867354	-0.221169
C	 2.3491819923	-0.4035063673	 1.1999651238	 0.014375
C	 1.4908476237	 0.2753223495	 2.2393337621	-0.326336
C	 0.8445075539	-0.5456942352	 1.1471874396	-0.007384
H	 0.7134843234	 2.0925834422	-0.0997481297	 0.118631
H	-0.8834583902	 1.8366263419	-0.7988773658	 0.107322
H	-0.6813665308	 1.8717495377	 0.9575997459	 0.115238
H	-1.030754042	-0.4036931826	 0.1941655572	 0.069038
H	 0.5251301138	-1.6209101363	-1.279937061	 0.086043
H	-0.4092264574	-0.3635747486	-2.0695122702	 0.083985
H	 1.7715445928	-0.3274381538	-3.0025478804	 0.088755
H	 1.5782927257	 1.1469471029	-2.0864720259	 0.09235
H	 3.175331543	-1.3143752783	-1.1938042711	 0.087973
H	 3.8344571682	 0.1624668582	-1.8754826961	 0.084985
H	 4.1774708344	 0.4162500321	 0.4584834558	 0.090696
H	 2.7881824912	 1.4211974524	 0.1236124411	 0.093247
H	 2.871807763	-1.2975897624	 1.5336274664	 0.075315
H	 1.4818958419	-0.1093654364	 3.253854925	 0.102777
H	 1.4083239783	 1.3556116524	 2.1799117798	 0.108258
H	 0.4965196279	-1.523075954	 1.4736847307	 0.077207
136.0752	185.1718	226.0227	263.2202	282.7652	309.1127	347.3634	386.6199	418.9797	458.2961	519.5614	651.3117	685.4212	749.6395	793.6989	839.9331	863.9904	878.5773	894.8101	927.3349	955.8762	981.9359	991.4531	1047.8232	1054.9659	1064.66	1083.9694	1093.8907	1111.6766	1145.1743	1152.0994	1187.3518	1224.0681	1229.0718	1259.7522	1280.5409	1299.1268	1339.1273	1351.2073	1376.751	1380.3978	1389.9596	1394.9211	1399.2279	1414.3877	1430.7899	1477.2842	1481.2581	1483.3279	1495.1341	1496.1912	1506.2978	1513.2425	2992.8379	3006.9782	3009.201	3014.4981	3020.6031	3036.3184	3040.7206	3046.0165	3051.9246	3059.7973	3099.1123	3113.3844	3114.9324	3125.3574	3131.0057	3210.8508
CC1CCCCC2CC12	C[C@H]1CCCC[C@H]2C[C@@H]12	
InChI=1S/C9H16/c1-7-4-2-3-5-8-6-9(7)8/h7-9H,2-6H2,1H3	InChI=1S/C9H16/c1-7-4-2-3-5-8-6-9(7)8/h7-9H,2-6H2,1H3/t7-,8-,9-/m0/s1
