19
gdb 99955	2.64568	1.17133	0.99176	1.558	72.18	-0.249	-0.0948	0.1542	1247.0862	0.154754	-460.177599	-460.166925	-460.16598	-460.213151	37.642	
C	-0.0345743104	 1.4641884266	-0.3721519924	-0.438952
C	-0.0013939789	-0.0447549018	-0.0310113602	 0.128817
C	 0.7798731856	-0.2789163681	 1.2841402566	-0.438933
C	-1.435665283	-0.5853034676	 0.1053746575	-0.084323
O	-2.0717056067	 0.1207244865	 1.1605164824	-0.429102
C	 0.6767442715	-0.8036104041	-1.1623678468	 0.275454
O	 0.1424904736	-1.6740183622	-1.8153351027	-0.296767
C	 2.1375465959	-0.4947996911	-1.5555611319	 0.104918
O	 2.8536441882	 0.3250849244	-1.0456602365	-0.22481
H	 0.971801848	 1.8820777256	-0.4180931382	 0.142948
H	-0.5317053935	 1.6412028686	-1.3322945071	 0.1143
H	-0.6046615882	 1.9843479644	 0.4004954921	 0.145529
H	 0.2328598827	 0.1918884588	 2.1037029215	 0.145509
H	 0.8649410871	-1.3480109994	 1.5079884579	 0.114311
H	 1.7823681735	 0.147279907	 1.2303202035	 0.142955
H	-1.9691580532	-0.4503376064	-0.846150297	 0.097282
H	-1.4016638502	-1.6649876308	 0.3086311842	 0.097289
H	-2.9676664254	-0.2154882967	 1.2478586874	 0.291934
H	 2.4601173334	-1.1447667137	-2.3974996004	 0.111641
68.0664	111.3323	126.7547	165.9721	179.2378	231.7108	232.8784	249.6115	250.7783	313.2117	341.4843	366.0505	449.0459	516.9716	609.4394	647.1941	696.0129	835.3383	936.1883	971.6636	980.4086	992.5215	1058.0633	1072.0325	1129.6268	1179.2889	1203.9511	1273.1938	1289.4437	1297.9274	1370.7542	1387.8238	1409.6623	1458.315	1489.8374	1490.5932	1501.3573	1510.5746	1522.0682	1778.9377	1825.5736	2914.1044	2993.7909	3028.6738	3043.0097	3044.715	3117.7003	3119.7542	3151.0579	3153.9271	3841.6954
CC(C)(CO)C(=O)C=O	CC(C)(CO)C(=O)C=O	
InChI=1S/C6H10O3/c1-6(2,4-8)5(9)3-7/h3,8H,4H2,1-2H3	InChI=1S/C6H10O3/c1-6(2,4-8)5(9)3-7/h3,8H,4H2,1-2H3
