21
gdb 81661	3.27261	1.25435	1.16694	2.8971	81.6	-0.2335	-0.0146	0.2189	1159.4582	0.183905	-387.118617	-387.110555	-387.109611	-387.151251	32.24	
C	-0.2467971939	 1.4230493886	-0.0298922859	-0.426381
C	 0.0375829626	-0.0739304596	 0.0131110624	 0.041332
C	 1.2500298724	-0.5510917758	-0.8473047121	-0.020223
C	 2.148976762	-0.3364248734	 0.4031729918	-0.240372
C	 0.8617794087	-0.5647462343	 1.2451191258	-0.020234
C	 0.6407321857	-2.0660505977	 1.4434258634	-0.32315
C	 0.8019905482	-2.8583936778	 0.1367792587	 0.394776
O	 0.6854607187	-4.0596975182	 0.1073173331	-0.317531
C	 1.1183518027	-2.0492524169	-1.1306369681	-0.323152
H	 0.6553066497	 2.0193747702	 0.1417897215	 0.117088
H	-0.6549967694	 1.7153209833	-1.0035597162	 0.116149
H	-0.9783897327	 1.7038439628	 0.7356145919	 0.116151
H	-0.8962031303	-0.6233957974	-0.1637352743	 0.060194
H	 1.4825436117	 0.014570161	-1.7538231564	 0.062214
H	 2.9831739145	-1.0296171808	 0.5534396847	 0.092306
H	 2.5247347432	 0.6853568386	 0.4795588123	 0.103743
H	 0.7522871358	-0.0111139848	 2.1817690607	 0.062216
H	 1.3455064769	-2.4881478413	 2.1703859806	 0.126131
H	-0.3632822676	-2.278286664	 1.8320527973	 0.126306
H	 0.3210800671	-2.2542172621	-1.8562175427	 0.126306
H	 2.037989604	-2.4637911805	-1.5616449682	 0.126131
52.6678	221.9253	232.6634	238.0653	304.2068	375.873	405.2991	437.572	499.1117	522.7079	619.6363	717.3056	772.7566	789.6807	851.7256	860.7841	891.3011	899.0805	955.4409	1002.3852	1048.5389	1051.9989	1055.3971	1077.2398	1097.2185	1129.2131	1131.1694	1173.7956	1211.5822	1219.9662	1252.6774	1277.7935	1293.1856	1303.685	1308.6714	1346.4548	1346.7638	1394.6972	1414.8609	1445.7532	1446.9924	1495.175	1498.7743	1508.1688	1817.5706	3011.8568	3028.9086	3029.6754	3030.424	3049.418	3064.0077	3067.0181	3067.3026	3068.9646	3093.4112	3099.6974	3116.5669
CC1C2CC1CC(=O)C2	C[C@H]1[C@H]2C[C@@H]1CC(=O)C2	
InChI=1S/C8H12O/c1-5-6-2-7(5)4-8(9)3-6/h5-7H,2-4H2,1H3	InChI=1S/C8H12O/c1-5-6-2-7(5)4-8(9)3-6/h5-7H,2-4H2,1H3/t5-,6-,7+
