15
gdb 24393	3.76063	1.64628	1.1531	2.8372	71.87	-0.1964	0.0175	0.2139	985.7167	0.116587	-416.848078	-416.841422	-416.840478	-416.879183	26.148	
C	-0.0051978028	 1.5017517269	-0.0598139451	-0.280322
N	 1.3549393797	 2.0211555026	 0.1211057312	-0.264092
C	 2.3394651239	 1.246403768	 0.2768115312	 0.118942
O	 2.3886159709	-0.1190893045	 0.3131109281	-0.247043
C	 1.1568313027	-0.7133155154	 0.1519652312	 0.339728
C	 0.0101114956	 0.0107975064	-0.0255452129	 0.191635
N	-1.0099460615	-0.901110773	-0.1499754421	-0.343686
C	-0.5059091754	-2.1764659121	-0.0512120093	-0.06556
C	 0.8570621005	-2.0967974305	 0.1393487588	-0.306775
H	-0.6418270834	 1.9377393984	 0.7254895257	 0.117347
H	-0.3969438904	 1.9004019176	-1.0083381666	 0.117349
H	 3.3420643105	 1.6451278702	 0.409804427	 0.127011
H	-1.9785369782	-0.674343394	-0.2916303774	 0.263719
H	-1.1531298453	-3.0348554912	-0.1240212007	 0.124255
H	 1.5442079729	-2.9190025495	 0.2540225109	 0.10749
97.4607	207.2821	314.1878	398.7895	431.7168	489.1589	523.8977	626.5013	631.1612	673.4262	700.6955	732.2248	811.5041	877.2102	921.2585	949.4659	956.022	1037.4755	1063.156	1101.9602	1135.9907	1181.7392	1236.6226	1254.5942	1313.2216	1368.6549	1410.9766	1449.3691	1494.2001	1504.6196	1529.8184	1653.613	1738.5384	2975.9965	2982.8159	3175.5187	3261.8758	3279.9164	3683.2389
C1N=COC2=C1NC=C2	C1N=COc2c1[nH]cc2	
InChI=1S/C6H6N2O/c1-2-8-5-3-7-4-9-6(1)5/h1-2,4,8H,3H2	InChI=1S/C6H6N2O/c1-2-8-5-3-7-4-9-6(1)5/h1-2,4,8H,3H2
