20
gdb 88007	2.89994	1.28703	1.11633	1.8398	79.75	-0.2257	0.0666	0.2923	1191.8697	0.169843	-403.08654	-403.077777	-403.076833	-403.119941	33.572	
C	-0.1020504052	 1.4419447192	-0.1503540959	-0.394996
C	 0.0723230557	-0.0490486571	 0.003053904	-0.071695
N	 1.4615026529	-0.5641630727	-0.0269891661	-0.378872
C	 0.6831354755	-0.6648954227	 1.1981948314	 0.185777
C	 1.0989775873	-0.0915463826	 2.549381335	-0.13894
O	 0.6627559537	-1.3072850178	 3.212278307	-0.320581
C	 0.2868075691	-1.9026403319	 1.9695214391	 0.411437
C	-0.8887139995	-2.8144288682	 1.8503954814	-0.337657
C	 0.5280411009	-3.34671723	 1.6723172504	-0.340834
H	 0.695684561	 1.9783868983	 0.3705503808	 0.127488
H	-0.0676101893	 1.7316375743	-1.2058200959	 0.123414
H	-1.0648351337	 1.7664970371	 0.2590167913	 0.119383
H	-0.6838802714	-0.6530477915	-0.4991060441	 0.0836
H	 1.509629733	-1.467642719	-0.4937195302	 0.229442
H	 2.1751958765	 0.0775944703	 2.6641543155	 0.114363
H	 0.5421750445	 0.7840807229	 2.9022711716	 0.107171
H	-1.4054624796	-3.0669093693	 2.7700742771	 0.128641
H	-1.5284115896	-2.7329450038	 0.9771269696	 0.114071
H	 0.8550439281	-3.6296513685	 0.6757055773	 0.108888
H	 0.9443001498	-3.948951427	 2.4725653408	 0.1299
77.8382	134.5206	163.2571	185.5233	233.9727	262.9318	373.4479	425.9155	455.6138	531.2181	553.0485	612.5659	755.1708	790.2632	854.1483	869.624	876.4023	931.6177	950.5739	977.7718	999.7477	1010.2374	1045.4157	1048.9706	1063.8464	1078.9949	1098.7826	1117.1541	1149.5076	1186.0556	1200.6928	1228.6304	1258.9885	1316.6107	1362.6986	1381.7442	1415.3106	1446.3672	1478.6134	1488.1968	1494.5312	1515.5625	1529.8279	3026.3108	3035.184	3077.2309	3098.5625	3099.1506	3120.3528	3122.2129	3126.8214	3207.1617	3222.0066	3485.6266
CC1NC11COC11CC1	C[C@H]1N[C@]21COC12CC1	
InChI=1S/C7H11NO/c1-5-7(8-5)4-9-6(7)2-3-6/h5,8H,2-4H2,1H3	InChI=1S/C7H11NO/c1-5-7(8-5)4-9-6(7)2-3-6/h5,8H,2-4H2,1H3/t5-,7+/m1/s1
