20
gdb 7644	4.46853	1.09536	0.95401	1.5352	71.17	-0.2552	0.0688	0.324	1242.2471	0.175653	-386.128627	-386.11957	-386.118626	-386.162229	33.918	
C	-0.2030208336	 1.4746709209	-0.0497404993	-0.403842
C	 0.0174074483	-0.0386644379	-0.0622107718	 0.122462
O	 0.7007715483	-0.4555963739	-1.2430657385	-0.431575
C	 0.7305852786	-0.539472601	 1.1882872432	 0.034034
C	-0.0266477347	-0.5241103176	 2.5481848447	-0.290425
C	 0.6398391611	-1.8891281529	 2.870355124	 0.16936
O	-0.0638329811	-2.870450063	 3.5871156335	-0.432642
C	 0.9225909608	-2.0718188641	 1.3567800896	-0.281636
H	 0.756068594	 2.004790012	 0.0110656187	 0.104672
H	-0.7107437123	 1.7925328702	-0.964348141	 0.12379
H	-0.8070765086	 1.7823911114	 0.8098988319	 0.120779
H	-0.9572920191	-0.540636996	-0.1271924681	 0.077966
H	 1.5619199988	-0.0228328387	-1.2489936052	 0.274566
H	 1.6931407397	-0.0194536261	 1.2850942824	 0.059661
H	 0.1335841348	 0.3088342842	 3.2363547944	 0.100858
H	-1.1058877851	-0.6503143278	 2.3940028891	 0.090037
H	 1.5718850083	-1.7389684363	 3.4239072861	 0.09183
H	-0.8796627264	-3.0572753581	 3.1106325265	 0.274938
H	 0.1052213089	-2.617359963	 0.869495018	 0.093828
H	 1.8691417593	-2.5236727023	 1.0541797319	 0.101338
77.2882	85.825	165.0544	238.7202	273.2605	298.2806	320.0022	337.5616	379.9168	451.6887	469.7579	493.7578	619.4029	769.6861	804.2486	889.2535	924.2431	941.5533	982.5989	1025.2423	1037.6936	1046.8748	1083.3951	1114.2787	1115.3995	1156.1732	1198.1872	1211.6748	1250.0564	1259.8787	1285.0524	1293.1115	1329.5215	1338.7338	1393.3894	1400.828	1419.2628	1441.6135	1469.1277	1490.9174	1494.2795	1497.6639	3009.3622	3020.6887	3027.4779	3030.7688	3040.9328	3066.2918	3092.8896	3104.8454	3113.5593	3118.3711	3796.6324	3806.355
CC(O)C1CC(O)C1	C[C@@H](O)[C@H]1C[C@@H](O)C1	
InChI=1S/C6H12O2/c1-4(7)5-2-6(8)3-5/h4-8H,2-3H2,1H3	InChI=1S/C6H12O2/c1-4(7)5-2-6(8)3-5/h4-8H,2-3H2,1H3/t4-,5-,6+/m1/s1
