21
gdb 14744	13.88217	0.55653	0.5441	2.9309	81.44	-0.2447	0.0282	0.2729	2093.1177	0.186275	-366.266035	-366.255621	-366.254677	-366.303007	34.993	
C	-0.0439324531	 1.5362273371	 0.0330810643	-0.380487
C	 0.0813134215	 0.0106323643	 0.0003325361	-0.169042
C	 0.7083835168	-0.5591673149	 1.2771089515	-0.178118
C	 0.8311249059	-2.0741463819	 1.2406579835	-0.075029
O	 1.4239441494	-2.5009329398	 2.4697848623	-0.206291
C	 1.6053486269	-3.8281051858	 2.6071665995	 0.133962
N	 2.1193125404	-4.304586891	 3.6515967667	-0.205587
C	 2.2792604946	-5.7413788467	 3.717286673	-0.313897
H	 0.936728327	 2.0105407263	 0.1479479361	 0.118285
H	-0.493884506	 1.9182965846	-0.8882231917	 0.114013
H	-0.6690269169	 1.8631901625	 0.8710650798	 0.118282
H	-0.9109883234	-0.4348476551	-0.1501506284	 0.098173
H	 0.6833430042	-0.2885642141	-0.8678853436	 0.098178
H	 1.7057464629	-0.1305949666	 1.4321614576	 0.112406
H	 0.1089392276	-0.2772381071	 2.1509687659	 0.112389
H	-0.1574672111	-2.5402458698	 1.1211844612	 0.104273
H	 1.4566859124	-2.3919744144	 0.3941864116	 0.104279
H	 1.2708952441	-4.427173214	 1.7441124909	 0.068422
H	 1.7381951878	-6.1335063659	 4.5862842822	 0.126356
H	 1.9231337842	-6.2753413002	 2.8202682491	 0.093063
H	 3.3369402448	-5.9885599774	 3.8652705626	 0.126368
22.0286	64.4464	87.2877	116.6402	133.4441	207.184	216.4551	245.7884	309.7583	313.6541	366.668	498.1442	612.9145	745.6671	812.6715	909.6326	953.2542	984.2781	1011.7894	1046.9057	1069.5036	1079.8459	1141.1275	1145.0918	1156.5908	1191.348	1252.3443	1254.4467	1296.9936	1318.1925	1327.5779	1385.4437	1399.8826	1413.7057	1435.9902	1450.897	1480.3606	1488.9706	1496.4503	1499.4225	1505.2321	1509.9773	1523.895	1780.9193	2961.2054	2975.7668	2994.6302	3014.6746	3028.264	3031.8883	3037.6135	3041.5102	3054.8755	3074.2299	3081.2706	3100.8541	3105.715
CCCCOC=NC	CCCCOC=NC	
InChI=1S/C6H13NO/c1-3-4-5-8-6-7-2/h6H,3-5H2,1-2H3	InChI=1S/C6H13NO/c1-3-4-5-8-6-7-2/h6H,3-5H2,1-2H3
