16
gdb 110436	3.60157	1.25303	1.05521	5.4649	68.15	-0.2478	0.0023	0.2501	1114.1258	0.124167	-437.82922	-437.821594	-437.82065	-437.861639	28.751	
O	-0.2069146927	 1.4390186805	 0.1925030149	-0.419604
C	-0.076927759	 0.0592154262	-0.1096727369	-0.105889
C	-1.4401685648	-0.5785767123	 0.0877943255	-0.003381
C	-1.3896824089	-2.1126888374	 0.1383747599	-0.056173
C	-1.2887681418	-2.1318264439	 1.6023125423	-0.054502
C	-1.882332907	-0.6679862234	 1.5837528529	-0.207211
C	-3.2019477868	-1.4116347228	 1.4495269202	 0.437993
O	-4.3346790908	-1.2458079584	 1.7690144366	-0.31293
N	-2.5661596772	-2.6289887594	 0.9323516309	-0.210311
H	 0.6427581351	 1.8645262495	 0.0448026037	 0.29232
H	 0.2499498547	-0.0963192983	-1.1506253671	 0.094488
H	 0.6619789402	-0.4299222002	 0.545531657	 0.091379
H	-2.1661619676	-0.1176161123	-0.591038076	 0.099056
H	-0.9950469005	-2.8029210299	-0.5969035623	 0.11449
H	-0.7739005013	-2.7301940081	 2.3384773398	 0.127219
H	-1.7237275316	 0.1557642705	 2.2722021786	 0.113055
103.3479	126.7014	167.6864	237.4847	274.9756	403.1201	439.7048	542.9811	623.0109	723.076	757.143	780.5821	833.8334	865.1674	884.1081	894.5025	955.5859	1008.6406	1023.1856	1049.2643	1059.5226	1083.5138	1100.1153	1140.857	1165.7953	1191.0442	1213.1079	1238.3626	1256.9641	1286.5622	1327.7553	1374.5357	1463.1793	1518.7286	1925.7941	2963.9856	2993.2956	3056.2391	3181.9441	3194.9637	3240.4978	3831.9634
OCC1C2C3C1C(=O)N23	OC[C@H]1[C@H]2[C@H]3[C@@H]1C(=O)N23	
InChI=1S/C6H7NO2/c8-1-2-3-5-4(2)7(5)6(3)9/h2-5,8H,1H2	InChI=1S/C6H7NO2/c8-1-2-3-5-4(2)7(5)6(3)9/h2-5,8H,1H2/t2-,3-,4+,5-,7?/m1/s1
