21
gdb 88113	3.24629	1.22458	1.04846	1.2703	83.71	-0.235	0.0334	0.2684	1211.6924	0.183796	-387.090318	-387.081931	-387.080987	-387.122933	33.521	
O	-0.0737075183	 1.4334690897	-0.073912094	-0.423238
C	-0.0475576585	 0.0354403961	-0.005884012	 0.030008
C	-0.4954104491	-0.667462066	 1.2552229732	-0.367962
C	-1.3615593662	-0.6837129044	 0.0041041189	 0.353055
C	-2.6581491768	 0.1064408591	 0.0271131452	-0.272749
C	-3.7741893012	-0.7192890403	 0.686411814	-0.250114
C	-3.7900544422	-2.1414167449	 0.187739588	-0.045076
C	-2.7759463899	-2.7004828036	-0.4716557276	-0.048426
C	-1.4837408109	-1.9839713162	-0.7765252152	-0.325747
H	 0.6297117366	 1.7698969742	 0.4906707812	 0.28669
H	 0.761997738	-0.4267829468	-0.5738396998	 0.078835
H	 0.0146712441	-1.5764472281	 1.5581410304	 0.105233
H	-0.8216098148	-0.0344559318	 2.0751043449	 0.107422
H	-2.5174717816	 1.0611639741	 0.5384185178	 0.104532
H	-2.9478910177	 0.3418059474	-1.0055625155	 0.098278
H	-3.6494656514	-0.7164369806	 1.7796245143	 0.10561
H	-4.7482390884	-0.248793538	 0.5016606991	 0.097991
H	-4.6862701757	-2.7245665975	 0.3876765998	 0.080119
H	-2.8583463662	-3.7268084006	-0.8220736754	 0.080029
H	-1.4234814144	-1.7794528289	-1.8574169982	 0.108278
H	-0.6332890354	-2.6429975229	-0.557882259	 0.097233
100.7316	166.8107	180.9293	249.2797	300.0585	355.5975	378.9674	405.0104	458.2434	516.1808	564.4266	664.3588	679.3415	771.1823	812.7926	875.6058	886.8281	913.8726	959.1026	972.7549	993.941	1003.3271	1015.4449	1039.6081	1049.5756	1061.2845	1095.7171	1149.9946	1169.3351	1202.2827	1217.0899	1246.2574	1273.0963	1307.8737	1327.9317	1355.5245	1361.4035	1392.4264	1414.4234	1430.064	1473.1294	1476.3673	1491.9512	1500.1921	1724.8346	2982.0215	2997.0481	3021.5898	3030.468	3042.0588	3078.7088	3104.0979	3120.2502	3138.4502	3162.6444	3208.0723	3806.6464
OC1CC11CCC=CC1	O[C@H]1C[C@]21CCC=CC2	
InChI=1S/C8H12O/c9-7-6-8(7)4-2-1-3-5-8/h1-2,7,9H,3-6H2	InChI=1S/C8H12O/c9-7-6-8(7)4-2-1-3-5-8/h1-2,7,9H,3-6H2/t7-,8+/m0/s1
