24
gdb 76921	2.22394	1.25233	1.03954	1.2376	91.16	-0.2136	0.0833	0.2969	1343.4628	0.214881	-368.378854	-368.368306	-368.367362	-368.414193	39.605	
C	-0.3787696772	 1.4977912451	-1.5032499191	-0.420174
C	-0.1403823129	 0.1386805427	-0.8813974715	-0.03663
N	 1.1971739892	-0.3768302317	-0.5557560966	-0.142269
C	 2.3667756263	 0.4206068752	-0.7859278563	 0.081995
C	 3.6897428923	-0.2243342376	-0.4623489299	-0.274812
C	 3.2741815992	-0.0319691684	-1.9009883928	-0.276855
C	 0.2670205562	-0.0852086052	 0.5473426395	 0.309163
C	 0.5123348041	 1.0786659902	 1.4901884324	-0.456509
C	-0.2444110871	-1.3276464327	 1.2544459714	-0.437002
H	 0.1706463776	 2.3055046925	-1.0168647702	 0.11704
H	-0.09130743	 1.491042045	-2.5605731759	 0.125941
H	-1.444244635	 1.7469194349	-1.4537252579	 0.119143
H	-0.7780986674	-0.6303955073	-1.3210155768	 0.077085
H	 2.3094078982	 1.4966316886	-0.6269885662	 0.069562
H	 4.481871201	 0.3977013	-0.0605647595	 0.106135
H	 3.6511514751	-1.2320583997	-0.0657705332	 0.117363
H	 2.9615912815	-0.9127483708	-2.4493224008	 0.117852
H	 3.779506524	 0.7233370463	-2.4925687891	 0.10579
H	 0.8367414952	 1.9908510981	 0.9881581464	 0.11638
H	-0.4034245894	 1.3134339995	 2.0437998729	 0.117063
H	 1.2807317696	 0.8142780144	 2.2258661701	 0.122392
H	 0.4577473056	-1.6514270536	 2.0317030885	 0.112081
H	-1.2107795595	-1.1356841001	 1.7355241757	 0.107729
H	-0.3644413764	-2.1506971352	 0.5459359587	 0.121536
57.1905	120.2153	129.7147	168.412	175.3265	201.1517	242.2885	260.7914	326.7395	369.6911	374.2915	465.4111	497.1059	557.0397	695.8992	717.4576	770.4814	793.6065	836.325	903.1924	949.1186	954.2631	974.1757	991.5339	1022.1551	1031.6605	1055.1446	1071.6033	1109.8428	1123.7057	1138.4308	1142.0091	1165.6098	1197.3177	1216.8296	1238.4157	1281.9517	1356.1741	1394.793	1404.605	1409.4005	1423.2791	1439.3315	1455.6428	1476.92	1482.6989	1490.5539	1495.1895	1496.3168	1505.1539	1515.2742	3023.4463	3033.9014	3037.3586	3077.1953	3082.731	3088.6059	3091.7537	3094.5149	3119.3334	3126.6463	3136.4957	3139.4122	3141.4509	3221.9354	3235.5853
CC1N(C2CC2)C1(C)C	C[C@H]1N(C2CC2)C1(C)C	
InChI=1S/C8H15N/c1-6-8(2,3)9(6)7-4-5-7/h6-7H,4-5H2,1-3H3	InChI=1S/C8H15N/c1-6-8(2,3)9(6)7-4-5-7/h6-7H,4-5H2,1-3H3/t6-,9?/m1/s1
