25
gdb 87205	3.87766	0.82513	0.77255	0.0493	93.69	-0.2527	0.088	0.3407	1630.5873	0.227894	-352.33899	-352.328674	-352.32773	-352.374214	39.301	
C	-0.0068726727	 1.4530242911	-0.2819798749	-0.414511
C	 0.155251445	-0.0282271127	-0.0156987173	-0.039503
C	 1.5221143532	-0.6694244693	 0.0718793181	-0.329585
C	 0.6379477155	-0.6061273058	 1.3012358894	 0.369302
C	 1.0387434502	 0.3202024761	 2.435153276	-0.462843
C	-0.0183004655	-1.9109971031	 1.7430588483	-0.282383
C	 0.8722717418	-2.8161354464	 2.5737467758	 0.04071
C	 0.8630730409	-2.7571646509	 4.082142667	-0.251415
C	 0.2703087268	-3.9468473766	 3.3689298744	-0.28264
H	 0.8022649943	 2.0430922073	 0.1565941583	 0.114738
H	-0.0035615433	 1.6515722654	-1.3597442173	 0.115711
H	-0.9524256555	 1.8340343034	 0.120934699	 0.113927
H	-0.6008557632	-0.6340279608	-0.5114104916	 0.075543
H	 1.6817956375	-1.6293662131	-0.4095011673	 0.102037
H	 2.3855052045	-0.0112854794	 0.0373825969	 0.101368
H	 1.5215942619	 1.2307107949	 2.072247477	 0.109694
H	 0.1657572538	 0.6207127797	 3.0279434813	 0.107543
H	 1.7404097946	-0.1755690959	 3.1129607111	 0.124505
H	-0.9316306482	-1.6870538582	 2.3134628406	 0.085326
H	-0.3454446419	-2.4585665678	 0.8490766622	 0.090046
H	 1.837297993	-3.0241637637	 2.1175733045	 0.080871
H	 1.7991893485	-2.8877760804	 4.6143307743	 0.107757
H	 0.1789813972	-2.0611279057	 4.5571856144	 0.108765
H	-0.8106927492	-4.0463055059	 3.3643312678	 0.107517
H	 0.8004309107	-4.8919848923	 3.411227562	 0.107517
64.4748	89.4701	125.5547	179.3944	181.7069	238.7076	263.0234	290.2071	320.7801	387.1842	408.7179	436.3198	523.4092	707.7181	773.5622	783.2227	806.6065	839.3047	876.716	893.021	903.3586	940.1471	953.4403	988.3339	1001.4029	1021.872	1054.2716	1058.9154	1079.8128	1095.8621	1119.0719	1136.4114	1143.7556	1171.9252	1192.3332	1199.5818	1224.8622	1251.63	1273.7357	1325.0171	1366.3396	1407.2087	1413.1012	1420.8216	1426.1428	1468.5318	1476.9049	1485.8106	1493.3844	1494.4006	1499.563	1509.4523	1516.7846	2995.6524	3025.2375	3029.4084	3034.7965	3083.1397	3089.5709	3102.7811	3114.4716	3118.4299	3125.948	3126.8168	3129.7259	3134.889	3198.7473	3202.8468	3218.3284
CC1CC1(C)CC1CC1	C[C@H]1C[C@]1(C)CC1CC1	
InChI=1S/C9H16/c1-7-5-9(7,2)6-8-3-4-8/h7-8H,3-6H2,1-2H3	InChI=1S/C9H16/c1-7-5-9(7,2)6-8-3-4-8/h7-8H,3-6H2,1-2H3/t7-,9+/m0/s1
