23
gdb 78686	3.82652	1.1749	1.07836	0.0089	90.39	-0.2771	0.0888	0.3659	1260.5781	0.204789	-351.091595	-351.082754	-351.08181	-351.124242	35.579	
C	-0.1930107043	 1.6460223165	-0.0464042622	-0.419128
C	-0.0641573477	 0.1303709539	-0.0123727395	-0.015802
C	 1.1567217152	-0.548253977	-0.6684691959	-0.059599
C	 2.0996419251	-0.2410221414	 0.5521705236	-0.080294
C	 0.6805780497	-0.5478099892	 1.1568138422	-0.059613
C	 1.0625884831	-1.7932466409	 0.2820232906	-0.076647
C	 2.5632593624	-1.7188915187	 0.6734786998	 0.317957
C	 3.5728399919	-2.2123098675	-0.3615704896	-0.4568
C	 2.9384341215	-2.2118528114	 2.0700004906	-0.4568
H	 0.7531012107	 2.1389106153	 0.2006003326	 0.112477
H	-0.4998986346	 1.9930245267	-1.0395896511	 0.112236
H	-0.9463711639	 1.9934712796	 0.6696474643	 0.112234
H	-1.0215751119	-0.3460874026	-0.2620030916	 0.057591
H	 1.4414722821	-0.5568648506	-1.7216687309	 0.065451
H	 2.6891016274	 0.6654885184	 0.7057019934	 0.061398
H	 0.4145815242	-0.5559227196	 2.214909179	 0.065453
H	 0.435845927	-2.6739322576	 0.1187568256	 0.057525
H	 3.3316321155	-1.8722985198	-1.3723495831	 0.111649
H	 4.5821435269	-1.8569173976	-0.1220836413	 0.109662
H	 3.610799762	-3.3080268084	-0.3783310694	 0.109869
H	 2.9617374419	-3.3075854786	 2.1038945646	 0.109879
H	 3.9367544586	-1.8577759775	 2.3534313687	 0.109653
H	 2.2350332773	-1.870252132	 2.8341987195	 0.111649
171.0463	172.9295	194.7097	204.3814	238.5125	249.5285	333.6668	348.0562	377.5519	524.9313	538.0456	620.0446	758.1344	771.2295	829.4213	845.3208	854.3675	862.9682	876.4864	947.7119	954.5129	962.3101	999.0847	1008.7315	1038.7069	1055.8478	1096.7861	1108.5521	1130.1504	1148.8669	1153.4994	1155.256	1177.1889	1207.8203	1220.6949	1234.7086	1252.1872	1313.5148	1335.7598	1398.9058	1402.036	1411.6908	1419.9111	1481.5423	1487.8904	1494.3119	1498.4142	1504.9331	1506.9882	3014.7238	3021.5047	3026.0831	3026.732	3075.1934	3077.0971	3082.0206	3082.9866	3086.8048	3093.4576	3099.4605	3103.6359	3110.1648	3112.3622
CC1C2C3C1C2C3(C)C	C[C@H]1[C@H]2[C@H]3[C@@H]1[C@@H]2C3(C)C	
InChI=1S/C9H14/c1-4-5-7-6(4)8(5)9(7,2)3/h4-8H,1-3H3	InChI=1S/C9H14/c1-4-5-7-6(4)8(5)9(7,2)3/h4-8H,1-3H3/t4-,5-,6+,7-,8+
