18
gdb 43695	5.76175	0.64756	0.62603	3.3242	79.65	-0.2513	0.0317	0.2829	1743.0103	0.146205	-401.940804	-401.931521	-401.930577	-401.975794	33.787	
O	 0.1670045117	-0.0310390635	-0.1668526694	-0.353325
C	 0.0277482611	 1.1556251886	-0.0533660895	 0.431767
C	-1.1629234537	 2.1380616604	 0.0689897443	-0.415872
C	-0.0913876783	 3.2691182557	 0.0469050095	 0.057219
C	-0.0236468096	 4.1821415648	 1.2642628448	-0.188073
C	 1.2259032134	 5.0866479282	 1.2607750382	-0.359145
C	 1.2826663592	 5.9803441035	 2.4104184976	 0.290972
C	 1.3047654105	 6.7061621425	 3.3679747853	-0.42915
N	 0.9231564556	 2.2010822529	-0.0056519066	-0.327983
H	-1.8458619695	 2.1152276617	-0.781598636	 0.134222
H	-1.7287096186	 2.0523900573	 0.9988158867	 0.132607
H	-0.1193147154	 3.8645540194	-0.8749927871	 0.084985
H	-0.9217508562	 4.8097721911	 1.2871438728	 0.11785
H	-0.0289804684	 3.5748057839	 2.1758799051	 0.117086
H	 2.1273545785	 4.4598234251	 1.2446640797	 0.129188
H	 1.2471527898	 5.6783612727	 0.3356256513	 0.130511
H	 1.3356187945	 7.351812487	 4.2103044677	 0.197619
H	 1.9136108353	 2.2213564386	-0.2007251944	 0.249522
49.7024	91.0287	92.2346	131.0572	223.7051	328.13	346.7455	386.5111	426.2771	510.2884	527.0563	565.942	622.7211	642.064	724.1647	782.9233	830.9749	921.5195	933.9159	964.5679	1014.9937	1040.6654	1059.2416	1085.5101	1136.2787	1177.436	1193.5703	1218.564	1255.3108	1302.096	1321.253	1367.6508	1385.1864	1407.0606	1460.0138	1470.5686	1486.0813	1899.3821	2241.3065	3012.0471	3019.0567	3041.9038	3043.9025	3086.1346	3091.8989	3145.3058	3506.4169	3606.1926
O=C1CC(CCC#C)N1	O=C1C[C@@H](CCC#C)N1	
InChI=1S/C7H9NO/c1-2-3-4-6-5-7(9)8-6/h1,6H,3-5H2,(H,8,9)	InChI=1S/C7H9NO/c1-2-3-4-6-5-7(9)8-6/h1,6H,3-5H2,(H,8,9)/t6-/m1/s1
