18
gdb 69135	2.64553	1.67848	1.31796	2.6165	75.96	-0.24	-0.0286	0.2114	1018.1241	0.147918	-401.928556	-401.920917	-401.919973	-401.960363	30.499	
C	-0.0771268092	 1.4911336289	-0.0553750963	-0.451882
C	-0.0349241516	-0.0097534899	 0.0635583966	 0.3348
C	-0.7900910626	-0.7229729494	 1.1439716931	-0.339427
C	 0.7347945872	-0.7525479975	 1.1367730519	-0.192399
C	 1.437464507	-1.8932978514	 0.4449486261	 0.405176
O	 2.2750963924	-2.6144240975	 0.9257871172	-0.32356
C	 1.0632525136	-1.8412108838	-1.0238263833	-0.137701
C	-0.3584277389	-2.0149323172	-1.4424925019	-0.257661
N	 0.1932644795	-0.6762000753	-1.2494297005	-0.1464
H	 0.8249689842	 1.862793703	-0.5503369908	 0.130162
H	-0.9399379772	 1.8045375104	-0.6523510893	 0.128623
H	-0.1531920196	 1.960322412	 0.9301626102	 0.114614
H	-1.2307727701	-0.0978858215	 1.9139940663	 0.125414
H	-1.3504234065	-1.6308240932	 0.9617450712	 0.125755
H	 1.2687993251	-0.2729346308	 1.9486101275	 0.11259
H	 1.8677580071	-2.0337319953	-1.7280372658	 0.116871
H	-0.5611494799	-2.2717536626	-2.4787614193	 0.129235
H	-1.0750347506	-2.4242460589	-0.7401096129	 0.125789
118.532	178.9593	210.0267	288.8456	329.6826	407.4235	442.5157	472.5169	574.6746	588.2706	656.2368	732.7972	757.1953	787.7189	864.1599	867.1376	905.7675	956.7591	972.7655	1007.6702	1042.7378	1049.4222	1069.3643	1086.5342	1108.0572	1121.8531	1152.3198	1180.4403	1227.3539	1245.1305	1277.7821	1342.6417	1380.5352	1420.6957	1477.2519	1479.7449	1497.9465	1526.8463	1831.7899	3036.2531	3104.7	3114.1943	3121.7474	3141.5769	3153.4432	3185.6103	3207.3966	3225.2569
CC12CC1C(=O)C1CN21	C[C@]12C[C@H]1C(=O)[C@H]1CN21	
InChI=1S/C7H9NO/c1-7-2-4(7)6(9)5-3-8(5)7/h4-5H,2-3H2,1H3	InChI=1S/C7H9NO/c1-7-2-4(7)6(9)5-3-8(5)7/h4-5H,2-3H2,1H3/t4-,5+,7-,8?/m0/s1
