22
gdb 6231	2.05602	2.01681	1.5742	1.3824	78.82	-0.2372	0.0738	0.311	1016.287	0.196584	-350.20328	-350.19296	-350.192016	-350.23712	38.492	
C	-1.7165511124	 0.9727997054	-0.5962856372	-0.41872
C	-0.7865435822	-0.1951806341	-0.341781355	-0.118453
C	 0.3873064348	-0.5793527469	-1.2458376149	 0.268954
C	 0.600400738	-2.0613666679	-1.5080406639	-0.440013
C	 0.7378758838	 0.2766571047	-2.4514433246	-0.453404
C	 0.6418910106	-0.0599669976	 0.1551114543	 0.344481
C	 1.2829109556	 1.2845880481	 0.4262892923	-0.447482
O	 1.0884450668	-1.0445060361	 1.0639473711	-0.462032
H	-1.2022597147	 1.843438536	-1.0100820321	 0.114249
H	-2.5074461531	 0.6964019295	-1.3029078565	 0.117865
H	-2.2046055238	 1.2949107699	 0.3309332391	 0.113016
H	-1.2917286543	-1.0610769537	 0.0824380676	 0.078467
H	-0.0545621898	-2.4021176558	-2.3188298374	 0.103516
H	 1.6345955473	-2.2597624304	-1.8138573577	 0.10976
H	 0.3984801585	-2.6595730407	-0.6193958198	 0.128237
H	 0.5413909277	 1.3403296537	-2.3062147737	 0.110344
H	 1.7990469255	 0.1686668662	-2.7049524381	 0.116234
H	 0.1599835663	-0.0458122171	-3.3254963596	 0.114111
H	 0.9626390944	 2.0623268201	-0.2687952626	 0.115764
H	 1.0290066455	 1.6272046026	 1.4377089395	 0.103566
H	 2.372875885	 1.1999149527	 0.3692472458	 0.125474
H	 0.7181945405	-0.8313623784	 1.9276270634	 0.276066
140.7955	157.4862	172.7761	174.7474	189.6205	228.0848	234.0453	274.6236	287.3557	321.714	376.5597	411.9937	440.9575	503.7636	545.261	677.2313	688.3414	789.0209	936.2709	963.9578	976.0238	988.4896	1015.2189	1046.4902	1077.6228	1110.0272	1119.826	1163.2387	1197.4053	1211.9498	1284.7315	1308.4156	1342.4895	1404.6048	1408.608	1412.6897	1426.7723	1454.4992	1475.9137	1485.6737	1489.8079	1491.4828	1497.894	1499.7285	1507.0085	1527.9139	3022.6381	3023.2205	3026.8539	3031.0253	3075.3093	3079.5786	3081.0643	3086.0314	3106.4956	3121.4914	3124.9319	3136.5017	3143.6519	3792.3764
CC1C(C)(C)C1(C)O	C[C@H]1C(C)(C)[C@]1(C)O	
InChI=1S/C7H14O/c1-5-6(2,3)7(5,4)8/h5,8H,1-4H3	InChI=1S/C7H14O/c1-5-6(2,3)7(5,4)8/h5,8H,1-4H3/t5-,7+/m0/s1
