15
gdb 43028	2.80254	1.95441	1.41941	4.236	65.45	-0.2335	-0.0353	0.1981	895.9616	0.11305	-457.687406	-457.680905	-457.679961	-457.718215	25.992	
O	-0.0658796675	 0.0065956998	-0.1301170848	-0.300556
C	-0.0612897012	 1.1962920185	-0.0271363859	 0.394421
C	-1.2690744127	 2.1902280687	 0.0470662703	-0.045012
C	-0.9041291448	 3.3568027517	 1.0313384345	-0.347802
C	 0.18177546	 3.4793649127	-0.0452454877	 0.362348
C	 1.3808070182	 4.1369497596	-0.7222739551	-0.197626
O	 1.9403933859	 2.8061261713	-0.9556299578	-0.295691
C	 1.0767747797	 2.2502664512	 0.0724409011	 0.013553
O	-0.7910874425	 3.0274099306	-1.0463477832	-0.301365
H	-2.2728940592	 1.7872044722	-0.0695546893	 0.114274
H	-1.6750681399	 4.128878547	 1.0023519467	 0.131042
H	-0.5916023407	 3.1303587864	 2.053230127	 0.119019
H	 1.1719292575	 4.6709218578	-1.6524726925	 0.136276
H	 2.0216784635	 4.7331649629	-0.0624418269	 0.117016
H	 1.6389017636	 2.0996925795	 1.0039297636	 0.100103
134.7161	257.7655	290.4828	323.6103	445.5015	506.6381	568.6787	622.5073	641.0017	758.3927	816.424	850.462	867.6814	886.2601	930.0269	950.1952	966.5437	993.6215	1037.9122	1057.0258	1110.7853	1140.9841	1176.018	1203.2173	1230.6612	1236.465	1255.5914	1283.2729	1320.4241	1352.1089	1484.5937	1495.9902	1887.3458	3018.9716	3037.852	3071.3225	3112.9604	3142.3032	3157.0759
O=C1C2CC3(COC13)O2	O=C1[C@H]2C[C@]3(CO[C@H]13)O2	
InChI=1S/C6H6O3/c7-4-3-1-6(9-3)2-8-5(4)6/h3,5H,1-2H2	InChI=1S/C6H6O3/c7-4-3-1-6(9-3)2-8-5(4)6/h3,5H,1-2H2/t3-,5-,6-/m1/s1
