19
gdb 83707	2.60668	1.65732	1.20361	4.2158	74.38	-0.262	0.0151	0.2771	1070.4296	0.160644	-423.071233	-423.06333	-423.062386	-423.103754	30.494	
C	-0.4373807704	 1.5170712868	 0.0901815244	-0.402885
C	 0.0255471916	 0.0667318764	-0.0355369834	-0.150895
C	 0.7473317918	-0.3636902768	-1.3087073982	-0.0387
C	 1.9416875981	 0.497422185	-1.8339295083	-0.244888
C	 2.8817735414	-0.7301920286	-1.6556276165	-0.232645
C	 1.7782438493	-1.4285088319	-0.8367454771	 0.096304
O	 1.9360084488	-1.2113846302	 0.5736872983	-0.23403
C	 1.0156793477	-0.3340848984	 1.0658275114	 0.425133
O	 1.0230525663	 0.0226911784	 2.2081879396	-0.339545
H	 0.3747513581	 2.2188298185	-0.1205264621	 0.125298
H	-1.2569108269	 1.7277804042	-0.6026388508	 0.115675
H	-0.782027994	 1.7047036794	 1.1100925291	 0.145853
H	-0.8447311539	-0.5896402957	 0.1108059456	 0.111138
H	 0.0783785082	-0.6959823676	-2.1032259852	 0.0808
H	 1.8394165807	 0.890296646	-2.8467776	 0.108655
H	 2.1962268779	 1.3276820021	-1.1708934904	 0.116659
H	 3.0749031952	-1.2537686271	-2.5955233988	 0.109675
H	 3.8273147557	-0.5741138005	-1.133191988	 0.120574
H	 1.5951599544	-2.49301694	-0.9993211196	 0.087822
93.877	128.6215	200.6144	221.8023	255.192	365.2935	456.733	497.8889	591.4475	626.8691	704.9858	745.4705	765.752	788.5892	874.4613	891.1813	941.6168	951.4604	965.787	1032.2139	1044.0177	1064.4505	1108.0435	1142.717	1151.2663	1165.6577	1207.5452	1229.5021	1257.9909	1277.7758	1288.1637	1296.3972	1340.1931	1350.1899	1370.525	1409.9982	1469.0129	1490.7232	1497.4229	1500.9641	1874.7556	3006.6267	3046.6382	3067.2743	3072.8857	3083.211	3101.8492	3115.1795	3120.5768	3128.4777	3134.75
CC1C2CCC2OC1=O	C[C@H]1[C@H]2CC[C@H]2OC1=O	
InChI=1S/C7H10O2/c1-4-5-2-3-6(5)9-7(4)8/h4-6H,2-3H2,1H3	InChI=1S/C7H10O2/c1-4-5-2-3-6(5)9-7(4)8/h4-6H,2-3H2,1H3/t4-,5+,6+/m0/s1
