21
gdb 120932	3.42628	0.88686	0.81465	2.0953	79.1	-0.2286	0.0723	0.301	1515.7381	0.180623	-424.182672	-424.173142	-424.172197	-424.217292	35.716	
C	-0.1238927442	 1.5482077777	 0.0457211105	-0.383708
C	-0.1284508575	 0.0267514931	-0.1200862656	-0.15934
C	 0.8951747769	-0.4670124324	-1.1509070303	-0.204075
C	 0.8776440672	-1.973000328	-1.3212777035	 0.078716
O	-0.3973327375	-2.5037460668	-1.8119072062	-0.308326
C	 0.2795399345	-3.2638627649	-2.8140222972	 0.052911
C	 0.9605111	-2.3512477973	-3.800975817	-0.367079
C	 1.6164884145	-2.6674689889	-2.4723485604	 0.287028
O	 2.8505190453	-3.2724115919	-2.3461758794	-0.454823
H	 0.8554831008	 1.9095986273	 0.3796138719	 0.110887
H	-0.3553153798	 2.050384992	-0.9003430195	 0.113906
H	-0.8661429193	 1.8705217976	 0.7825587466	 0.113089
H	 0.0745330542	-0.4503844189	 0.8476975819	 0.094439
H	-1.1236843602	-0.3137130128	-0.4270641358	 0.119935
H	 0.7056037291	 0.0146258471	-2.1178707299	 0.094836
H	 1.9085393589	-0.1729241152	-0.8419893199	 0.093233
H	 1.1241352112	-2.4743925589	-0.3749032291	 0.085615
H	-0.0571985051	-4.2734416057	-3.014725294	 0.112041
H	 1.4269129299	-2.8676942126	-4.6352986507	 0.11628
H	 0.5373084054	-1.3770343645	-4.0290412352	 0.114839
H	 3.5141901457	-2.6929776661	-2.7358686874	 0.289595
72.6856	90.3904	117.5389	194.4874	248.3482	252.7582	279.8221	317.7683	368.651	430.1874	488.2388	541.022	649.9964	743.1169	747.1753	831.7033	863.1548	900.4694	908.973	933.4896	979.7104	993.402	1013.5899	1039.2001	1059.9079	1076.2618	1116.397	1129.4185	1160.4152	1209.2031	1235.6714	1256.7523	1276.0591	1303.4103	1325.9621	1333.8016	1381.7167	1397.3555	1412.86	1424.5262	1473.013	1492.9749	1493.3387	1500.7515	1509.6729	3009.3162	3013.0263	3023.5061	3028.2536	3054.5206	3071.6732	3097.1017	3101.9604	3112.9717	3192.3469	3207.4046	3796.8372
CCCC1OC2CC12O	CCC[C@H]1O[C@H]2C[C@@]12O	
InChI=1S/C7H12O2/c1-2-3-5-7(8)4-6(7)9-5/h5-6,8H,2-4H2,1H3	InChI=1S/C7H12O2/c1-2-3-5-7(8)4-6(7)9-5/h5-6,8H,2-4H2,1H3/t5-,6+,7-/m1/s1
