17
gdb 81579	3.6469	1.20873	1.01612	14.2816	70.49	-0.1634	-0.0124	0.151	1150.4952	0.137193	-455.03127	-455.023587	-455.022642	-455.064098	29.492	
N	 0.2994731595	 0.9790641649	 0.1147285375	-0.437278
H	 0.2998463085	-0.0281056242	 0.4360085292	 0.315764
H	 1.2417998896	 1.3660484504	 0.0844955275	 0.316063
H	-0.1314393639	 1.0824165576	-0.8030312005	 0.316061
C	-0.5419967414	 1.5815173181	 1.2241656493	-0.026658
C	-1.7044931991	 0.6425910341	 1.6083420484	-0.038134
N	-0.6239382259	-0.3800617917	 1.9780314031	-0.403413
C	-0.1867845487	 0.956146975	 2.5892006586	-0.038125
C	-1.6476265276	 1.2749739803	 3.0329367495	-0.103254
C	-2.1267413519	 2.7596348575	 3.2997189409	 0.33432
O	-2.8093151312	 2.8757738183	 4.3187319085	-0.448715
O	-1.7530210712	 3.6099254907	 2.4498750149	-0.492612
H	-0.7387461602	 2.6576737635	 1.1845158789	 0.190834
H	-2.5694616811	 0.3669490446	 1.0033472934	 0.09934
H	-0.9617336187	-1.0140454172	 2.7033774319	 0.234594
H	 0.7463139116	 1.0519845446	 3.1462558675	 0.099343
H	-2.0111092484	 0.5990542934	 3.8114523415	 0.08187
42.2287	173.8845	198.6995	310.5425	316.8734	380.5404	404.2399	418.4664	657.1125	715.8885	756.6996	756.7965	825.1681	832.1183	866.7832	893.4599	902.1893	922.7125	970.0832	1043.0815	1044.3799	1072.8538	1099.6898	1143.4857	1162.7325	1195.3136	1203.6756	1230.237	1237.2717	1263.0344	1281.2263	1312.0282	1343.2816	1370.9958	1628.8684	1664.2296	1779.2353	2941.9271	3075.0852	3082.7323	3109.1904	3113.2457	3452.3204	3479.029	3547.1942
[NH3+]C1C2NC1C2C([O-])=O	[NH3][C@H]1[C@H]2N[C@@H]1[C@H]2C(=O)[O]	
InChI=1S/C5H8N2O2/c6-2-3-1(5(8)9)4(2)7-3/h1-4,7H,6H2,(H,8,9)	InChI=1S/C5H8N2O2/c6-2-3-1(5(8)9)4(2)7-3/h1-4,7H,6H3/t1-,2-,3-,4+
