14
gdb 5731	4.032	2.19185	1.44668	4.2372	64.27	-0.1864	0.0414	0.2278	811.329	0.109637	-378.740893	-378.734218	-378.733274	-378.772787	24.496	
O	-0.2091379272	-0.1166994069	 0.0437754717	-0.437333
C	-0.1237611057	 1.0908029901	 0.1374701975	 0.43661
N	-1.1339291182	 2.0520458239	-0.0348976571	-0.357166
C	-0.6955728204	 3.3741061072	 0.1781296106	-0.2554
C	 0.6147777357	 3.2525720494	 0.4637968627	 0.325388
C	 2.009180457	 3.6640903273	 0.9004516912	-0.379142
C	 2.3361940751	 2.1165671484	 0.8821847062	-0.167417
N	 0.9552211642	 1.9131840201	 0.4209384383	-0.105406
H	-2.0665442505	 1.7755897248	-0.285683428	 0.265806
H	-1.3609936232	 4.2163823715	 0.1085698254	 0.137472
H	 2.5783368569	 4.2545785084	 0.1791276449	 0.133029
H	 2.0812540906	 4.133706983	 1.8836497813	 0.133569
H	 3.0958663418	 1.7995503688	 0.1638217962	 0.134259
H	 2.5443167039	 1.675397924	 1.8601763991	 0.13573
26.2266	179.9814	253.2164	317.3284	432.157	584.2123	599.4601	672.5311	696.206	722.2083	729.8267	795.4789	843.7252	906.4274	1040.4594	1055.827	1069.5275	1094.0899	1145.6226	1186.4798	1232.9463	1250.0567	1302.073	1327.4025	1377.8107	1403.2123	1482.2985	1519.0821	1684.9639	1832.4863	3063.8445	3074.6895	3111.9841	3127.9423	3287.7873	3695.3431
O=C1NC=C2CCN12	O=c1[nH]cc2CCn12	
InChI=1S/C5H6N2O/c8-5-6-3-4-1-2-7(4)5/h3H,1-2H2,(H,6,8)	InChI=1S/C5H6N2O/c8-5-6-3-4-1-2-7(4)5/h3H,1-2H2,(H,6,8)
