16
gdb 74549	3.65629	1.62486	1.38281	4.1482	76.23	-0.1936	-0.007	0.1866	939.8984	0.126938	-396.860369	-396.853631	-396.852687	-396.891075	27.669	
N	-0.0556397661	 1.2765215694	-0.3054550926	-0.599418
C	-0.0666368893	-0.0644389194	-0.0059465353	 0.381669
C	-1.1156298901	-0.8913399742	 0.24992985	-0.283848
C	-0.4783841487	-2.2033422864	 0.0113756161	 0.185623
N	-0.5997329685	-2.9178840193	-1.04039174	-0.246233
C	 0.7864940567	-3.0883963939	-1.5364048803	-0.18401
C	 1.6268182368	-2.2018517116	-0.6024103624	-0.05562
C	 1.2357885733	-0.8377840528	 0.0498095128	-0.1493
N	 0.8629767437	-2.1314624373	 0.628433247	-0.101857
H	 0.787939755	 1.7798625869	-0.0744543164	 0.255639
H	-0.894263755	 1.792670675	-0.0858183114	 0.259766
H	-2.1665051638	-0.6660244917	 0.1490097068	 0.112991
H	 1.1622783171	-4.1218991627	-1.4833953596	 0.111543
H	 0.8020537774	-2.7905275867	-2.5906267192	 0.120031
H	 2.6875492059	-2.4299657412	-0.5083683601	 0.099125
H	 2.0722780355	-0.3196404241	 0.5228786046	 0.0939
157.8795	253.0832	324.0917	354.2988	385.2389	478.3189	526.1301	580.1321	617.3841	677.8141	725.4764	756.9817	781.3914	794.441	858.218	906.7526	932.7371	966.4097	978.2718	1021.9952	1074.3758	1088.3328	1126.3576	1154.479	1187.7719	1219.5675	1227.8304	1302.0378	1335.0751	1351.5395	1394.2232	1491.1341	1622.3315	1648.6205	1671.5351	2987.4818	3058.0832	3085.1826	3126.5674	3246.5642	3569.9228	3673.3787
NC1=CC2=NCC3C1N23	N[C]1[CH][C]2[N]C[C@H]3[C@@H]1N23	
InChI=1S/C6H7N3/c7-3-1-5-8-2-4-6(3)9(4)5/h1,4,6H,2,7H2	InChI=1S/C6H7N3/c7-3-1-5-8-2-4-6(3)9(4)5/h1,4,6H,2,7H2/t4-,6+,9?/m0/s1
