18
gdb 65544	2.89621	1.53371	1.32345	3.4786	75.36	-0.2886	0.0178	0.3065	1012.6162	0.149355	-401.950612	-401.943005	-401.942061	-401.982373	30.47	
O	-0.0671492275	 1.3852509327	-0.0015095566	-0.473466
C	-0.0152169422	-0.0308592599	 0.0201763493	 0.281174
C	 0.4897852812	-0.6363401608	 1.3869073472	-0.279862
C	-0.8093601189	-1.3321717719	 1.8334755709	-0.015921
C	-1.2475539759	-2.0448134369	 0.5201477418	-0.241447
C	-1.4587378463	-0.5828102956	 0.0333321414	-0.033751
C	-1.888095173	-0.2640806288	 1.4941534206	-0.238907
C	 0.765330742	-0.5145191192	-1.1335001143	 0.232616
N	 1.3992310993	-0.8735703029	-2.0313124081	-0.346803
H	 0.8341284574	 1.7265470065	-0.0001786957	 0.290788
H	 1.3250322079	-1.3291659113	 1.2603699381	 0.120504
H	 0.7978404086	 0.1752025524	 2.0518212015	 0.109396
H	-0.7861802408	-1.8477411029	 2.793148388	 0.070175
H	-0.5187453093	-2.6686122498	-0.0049304266	 0.112997
H	-2.1947442268	-2.5774215157	 0.6221971148	 0.109066
H	-2.0652677567	-0.3266018732	-0.8337390459	 0.086248
H	-2.9016737165	-0.6136104258	 1.6999606768	 0.104199
H	-1.7508140726	 0.7559978932	 1.8560917968	 0.112992
129.0535	155.3287	232.8863	288.1071	334.8935	441.0971	456.5086	470.7002	518.9141	572.3819	635.8678	735.6616	824.8531	850.8703	853.5149	879.8534	909.7139	948.8115	992.311	998.5301	1025.835	1030.7199	1062.5123	1089.3363	1101.5152	1147.406	1154.9979	1214.5204	1231.0059	1245.9149	1271.4491	1279.3083	1287.7327	1327.5742	1367.1657	1483.3105	1489.2209	1525.1905	2347.6486	3061.6616	3063.6142	3076.9198	3115.8175	3119.8848	3127.5307	3135.7074	3139.6361	3806.3227
OC1(CC2CC1C2)C#N	O[C@]1(C[C@@H]2C[C@H]1C2)C#N	
InChI=1S/C7H9NO/c8-4-7(9)3-5-1-6(7)2-5/h5-6,9H,1-3H2	InChI=1S/C7H9NO/c8-4-7(9)3-5-1-6(7)2-5/h5-6,9H,1-3H2/t5-,6+,7-/m1/s1
