16
gdb 67532	2.4952	1.88008	1.53351	3.6368	68.75	-0.262	0.0206	0.2826	923.3285	0.123641	-437.827311	-437.819912	-437.818968	-437.858928	28.794	
C	-0.0406091787	 1.578555339	-0.0139466986	-0.496125
C	 0.005024691	 0.0705012762	 0.0223245465	 0.146319
C	-1.2042089013	-0.6841821433	 0.6678816166	-0.019907
O	-1.0354863203	-2.0812810095	 0.4561182559	-0.216673
C	-0.3131088077	-1.4833884603	 1.5309720513	-0.007917
C	 0.9355828677	-0.7832553949	 0.9213453523	 0.030398
O	 1.4953835377	-1.4403926125	-0.2480743844	-0.268374
C	 0.6809657568	-0.7038829828	-1.1016707209	 0.42143
N	 0.6145088573	-0.6844474989	-2.3508372986	-0.556877
H	 0.9462456811	 1.9988214091	-0.2272795844	 0.135496
H	-0.7247746451	 1.9150667854	-0.7994310429	 0.147579
H	-0.3897574646	 1.9868793255	 0.9404388748	 0.121331
H	-2.2097252084	-0.3093310762	 0.821452584	 0.115672
H	-0.4456739507	-1.9028568985	 2.521209926	 0.116146
H	 1.6909193773	-0.3786076858	 1.593599563	 0.100284
H	 1.2584379579	-1.3546198624	-2.7745323805	 0.231219
134.901	195.1452	214.3226	258.1128	271.0606	350.9006	472.6503	578.9991	666.3297	680.3302	730.5015	803.2207	834.1208	848.2481	868.8328	882.211	905.6251	928.5187	961.4282	996.6842	1014.6954	1042.1741	1133.8844	1154.3993	1187.5391	1202.7098	1225.4626	1255.2267	1286.7995	1344.0619	1378.9339	1412.9134	1489.6295	1492.0704	1828.3661	3036.0281	3104.3953	3114.4471	3131.3243	3181.0223	3196.1376	3477.7217
CC12C3OC3C1OC2=N	C[C@]12[C@H]3O[C@H]3[C@H]1O[C]2[NH]	
InChI=1S/C6H7NO2/c1-6-3-2(8-3)4(6)9-5(6)7/h2-4,7H,1H3	InChI=1S/C6H7NO2/c1-6-3-2(8-3)4(6)9-5(6)7/h2-4,7H,1H3/t2-,3+,4-,6+/m1/s1
