21
gdb 106162	2.65122	1.52636	1.50328	0.9883	81.54	-0.2261	0.0815	0.3076	1044.6609	0.183699	-387.041649	-387.033729	-387.032785	-387.073816	31.619	
C	 0.0397586458	 1.3889349968	 0.0341532545	-0.26471
O	-0.0009974287	-0.0259214612	 0.018223063	-0.295083
C	-1.2712664215	-0.5481598476	 0.0104347172	 0.454411
C	-2.3944636623	-0.3795193421	-1.0997584805	-0.117172
C	-2.3555699357	-1.9162701067	-1.3024348489	-0.225667
C	-1.5196417908	-2.0910997461	-0.0076299599	-0.099486
C	-2.3591792342	-1.9460268268	 1.2885151292	-0.225665
C	-2.3975563339	-0.4050259761	 1.1210830177	-0.117171
C	-3.3787487606	 0.0591754509	 0.0144759005	-0.220072
H	 1.0923175184	 1.6799265558	 0.0386020374	 0.128442
H	-0.4458332133	 1.8171545624	-0.854101854	 0.112981
H	-0.4478359757	 1.7971259737	 0.9307097213	 0.112975
H	-2.3180961923	 0.2494180019	-1.9874631005	 0.063066
H	-3.3154463879	-2.4404037268	-1.3575450818	 0.08825
H	-1.763828624	-2.178048742	-2.184557143	 0.10094
H	-0.7151518819	-2.8263197391	-0.0149527751	 0.068424
H	-3.319187607	-2.471260373	 1.3288990297	 0.088249
H	-1.7698881956	-2.2280094357	 2.1660376779	 0.100941
H	-2.3236545202	 0.2033765615	 2.023189785	 0.063067
H	-3.494007419	 1.1476464593	 0.0268232876	 0.094444
H	-4.3753612496	-0.3948915992	 0.0078658225	 0.088836
104.9409	168.9743	175.1213	265.3881	302.8462	382.4668	385.5434	436.6865	588.9238	608.4471	618.9713	803.1183	823.6608	825.0008	910.2119	919.8877	932.363	944.4039	1019.2649	1025.5697	1030.2719	1045.8956	1059.0037	1080.3666	1098.5534	1108.0086	1135.0011	1166.4872	1181.312	1201.0973	1205.783	1223.3298	1227.8416	1276.762	1287.053	1289.5463	1322.0796	1325.3362	1351.1795	1476.0374	1476.071	1484.7056	1488.3625	1496.905	1506.7742	2991.4382	3035.7771	3039.1209	3042.1022	3043.6771	3084.4933	3089.7558	3090.7517	3098.0217	3100.9647	3110.5121	3122.5771
COC12C3CC1CC2C3	CO[C@@]12[C@H]3C[C@@H]1C[C@@H]2C3	
InChI=1S/C8H12O/c1-9-8-5-2-6(8)4-7(8)3-5/h5-7H,2-4H2,1H3	InChI=1S/C8H12O/c1-9-8-5-2-6(8)4-7(8)3-5/h5-7H,2-4H2,1H3/t5-,6+,7-,8-
