17
gdb 53303	3.3377	0.7674	0.6633	2.4139	84.95	-0.2497	0.022	0.2717	1689.869	0.132113	-384.60906	-384.599007	-384.598063	-384.645856	34.78	
C	 0.1146793532	 1.5107552862	 0.188734901	-0.501604
C	 0.0403064262	 0.0590612778	 0.1285767593	 0.105937
C	-0.0236591816	-1.1434447923	 0.0880679505	 0.085279
C	-0.0571770184	-2.5790899301	 0.0219035223	-0.170149
O	-0.7335708186	-3.289108389	 1.0802383349	-0.236231
C	-1.3021869714	-3.3414150792	-0.2197131933	 0.080147
C	-2.6386314506	-2.6499336367	-0.4239465598	-0.392027
C	-3.7635055723	-3.4795456387	-0.0073354243	 0.29808
C	-4.6775095218	-4.1820578347	 0.3310313453	-0.435654
H	 1.1541527856	 1.8550871289	 0.1633334271	 0.154587
H	-0.4115060194	 1.9727625754	-0.6537154645	 0.152493
H	-0.3384825159	 1.8880491975	 1.111858531	 0.15766
H	 0.8775400777	-3.048397597	-0.2850756504	 0.114016
H	-1.2084293199	-4.3100074583	-0.7131412502	 0.104461
H	-2.6319780071	-1.7040931021	 0.1273209582	 0.149635
H	-2.7399925677	-2.396035507	-1.4878129279	 0.136024
H	-5.489479528	-4.7934025207	 0.6378941908	 0.197346
35.3467	49.9059	67.8576	124.5152	149.9333	235.1645	317.2119	335.845	363.4279	385.8945	490.281	538.9805	578.5204	620.1468	645.5447	744.5369	809.9238	894.776	923.6587	972.921	1027.1587	1050.9459	1053.6578	1109.5348	1126.1558	1189.4478	1233.6655	1285.0997	1319.1206	1386.2914	1413.2885	1451.7206	1458.5139	1475.428	1476.6516	2242.5887	2368.2738	3023.5979	3029.9217	3079.4115	3091.8433	3094.1367	3100.5462	3111.8262	3507.4739
CC#CC1OC1CC#C	CC#C[C@H]1O[C@H]1CC#C	
InChI=1S/C8H8O/c1-3-5-7-8(9-7)6-4-2/h1,7-8H,5H2,2H3	InChI=1S/C8H8O/c1-3-5-7-8(9-7)6-4-2/h1,7-8H,5H2,2H3/t7-,8+/m0/s1
