20
gdb 57883	2.72944	1.20443	0.97508	1.8416	76.53	-0.2591	-0.0375	0.2216	1274.512	0.169037	-440.28211	-440.272245	-440.271301	-440.31701	36.452	
C	 0.7639239156	 0.8367540412	-0.3473183551	-0.404804
C	-0.0440271553	-0.3493187033	 0.2148961352	 0.044711
O	 0.2444200775	-0.5328042449	 1.5788116961	-0.435118
C	-1.548818257	-0.1097990695	 0.0484817162	 0.312974
O	-2.1791441236	 0.268162958	 1.0224252391	-0.364609
C	-2.2489515136	-0.3596054789	-1.2566057909	 0.232102
C	-1.4794075022	-0.4131652345	-2.558427785	-0.480735
C	-3.4712315407	-1.2263418644	-1.0836700398	-0.244041
N	-3.6109206782	 0.1979125014	-1.3476180254	-0.337732
H	 1.817751351	 0.674594967	-0.1088166731	 0.138024
H	 0.6635312074	 0.9408152653	-1.4300703493	 0.12108
H	 0.4434081159	 1.7677625868	 0.1299496497	 0.129487
H	 0.2349935359	-1.2646504669	-0.3246576804	 0.092519
H	-0.5112094886	-0.1516502308	 2.0527764504	 0.291407
H	-0.6535203396	-1.129928011	-2.5185534119	 0.125733
H	-2.152803087	-0.7161645131	-3.3632236692	 0.135044
H	-1.0746931591	 0.5679828893	-2.8233362541	 0.135839
H	-3.7430139474	-1.8866520053	-1.903065793	 0.125034
H	-3.6905842559	-1.596196155	-0.086614713	 0.13392
H	-3.804114725	 0.6689292587	-0.4632556863	 0.249166
53.0027	71.3301	189.1707	208.0174	222.0798	242.1055	278.0569	330.7267	359.9476	377.3196	413.4089	443.3395	478.5692	583.544	731.7214	761.4321	820.1636	840.4763	911.2907	948.8301	999.0522	1026.2878	1042.8075	1054.3047	1079.6962	1105.0481	1116.7013	1145.0099	1180.2883	1267.9542	1299.7604	1338.5156	1344.9525	1363.3017	1395.6382	1422.915	1441.4378	1484.1543	1489.3389	1494.0464	1497.9923	1504.7306	1748.6197	3015.3737	3044.2695	3048.8205	3110.4414	3111.398	3124.5897	3126.681	3136.2503	3206.0104	3469.2586	3698.2748
CC(O)C(=O)C1(C)CN1	C[C@@H](O)C(=O)[C@@]1(C)CN1	
InChI=1S/C6H11NO2/c1-4(8)5(9)6(2)3-7-6/h4,7-8H,3H2,1-2H3	InChI=1S/C6H11NO2/c1-4(8)5(9)6(2)3-7-6/h4,7-8H,3H2,1-2H3/t4-,6-/m1/s1
