20
gdb 116022	2.49316	1.44533	1.00363	3.9653	82.62	-0.2319	-0.0281	0.2038	1228.1388	0.172533	-403.201094	-403.192318	-403.191374	-403.235021	32.742	
C	 0.0224598957	 1.5570374314	-0.2175955175	-0.374234
C	-0.0395707043	 0.0603177285	 0.0954671445	-0.158725
N	 0.6901504619	-0.2983551834	 1.3079646066	-0.115368
C	 2.1307979892	-0.510269718	 1.1943932431	-0.161633
C	 2.8497688892	-0.2919094528	 2.5258985266	-0.27279
C	 2.1222397815	-0.9967293651	 3.6358525392	-0.072461
C	 0.8146627429	-1.2398324189	 3.5423922799	-0.131745
C	-0.0086715915	-0.7888840524	 2.3888472717	 0.400901
O	-1.2306161145	-0.8231230788	 2.4334067532	-0.399441
H	 1.0529948567	 1.9048741293	-0.3482272338	 0.111005
H	-0.5202570351	 1.7728073725	-1.1435266502	 0.117275
H	-0.4324323089	 2.136396593	 0.5907007972	 0.1331
H	-1.0738087929	-0.2502667275	 0.2506732528	 0.148252
H	 0.3652494774	-0.5198732223	-0.7454710001	 0.097001
H	 2.3363457269	-1.5309731942	 0.83177683	 0.106627
H	 2.5202631841	 0.1808063737	 0.4413511044	 0.113428
H	 3.881120432	-0.6508786474	 2.4428240094	 0.114381
H	 2.9131862015	 0.7817589018	 2.7560967161	 0.125791
H	 2.6769164153	-1.270414906	 4.5296012964	 0.105034
H	 0.246706603	-1.7175013636	 4.3322170904	 0.113603
58.1706	90.3125	138.929	224.6373	235.3643	327.7139	360.2433	381.811	469.0117	483.437	554.7408	664.5073	717.7399	739.2073	789.7051	839.1735	890.7027	911.0052	974.4172	1009.9148	1018.5699	1068.8577	1094.7777	1100.3593	1140.7473	1176.2745	1213.7543	1253.3248	1275.7874	1322.3396	1364.5204	1374.2906	1395.4915	1404.3505	1411.3571	1458.4574	1470.8607	1487.8883	1492.8164	1501.8523	1517.4832	1694.6294	1752.9278	2966.7571	3006.8488	3008.9693	3034.5596	3070.1488	3078.0217	3096.2062	3117.4062	3130.7674	3161.9109	3209.2792
CCN1CCC=CC1=O	CCN1CCC=CC1=O	
InChI=1S/C7H11NO/c1-2-8-6-4-3-5-7(8)9/h3,5H,2,4,6H2,1H3	InChI=1S/C7H11NO/c1-2-8-6-4-3-5-7(8)9/h3,5H,2,4,6H2,1H3
