18
gdb 104106	2.60673	1.34852	1.15803	3.6338	69.07	-0.2588	0.0492	0.308	1130.042	0.147352	-476.246484	-476.237741	-476.236797	-476.280005	32.666	
C	-0.099101815	 1.6359299567	-0.0031557556	-0.446233
C	 0.0178018328	 0.123218361	-0.0864851535	 0.318408
C	-1.3537896721	-0.5734496478	-0.0740222861	-0.087714
O	-2.0574505106	-0.3209170059	 1.1196588415	-0.418343
C	 0.9087268006	-0.3885258365	-1.2285425306	-0.152406
O	 1.6385100232	-1.4654220522	-0.6359274496	-0.251985
C	 1.5805278379	-1.3519616799	 0.7230061395	 0.484294
N	 2.1951674758	-2.0487169079	 1.5685047924	-0.577141
O	 0.7376687724	-0.3526019107	 1.0799776279	-0.27213
H	 0.8815137544	 2.0883548884	 0.1633289278	 0.131014
H	-0.5146241163	 2.0302863705	-0.936163719	 0.124313
H	-0.7676766359	 1.9144385595	 0.8136496157	 0.151173
H	-1.9679771057	-0.1890250816	-0.8957036046	 0.113961
H	-1.2060480889	-1.6527057411	-0.2412962455	 0.101332
H	-1.4855721163	-0.6062852952	 1.8429508225	 0.299349
H	 0.3385612629	-0.777009673	-2.0766239925	 0.128844
H	 1.6073408568	 0.3780653391	-1.582439221	 0.120189
H	 2.8044544638	-2.7136925736	 1.0981762608	 0.233075
75.3277	133.2079	141.6106	221.1455	243.3414	300.9791	332.9642	379.8695	445.8343	488.9637	524.1137	646.2046	721.0706	731.5207	806.3136	821.9155	895.8997	914.6852	958.5283	970.1598	1005.6099	1051.5848	1088.935	1094.2296	1147.9275	1198.8927	1215.0773	1261.2985	1281.1333	1311.2037	1386.3996	1405.109	1415.1263	1433.5584	1481.6025	1498.7471	1501.22	1520.676	1801.0855	2976.8792	3038.7134	3048.4009	3072.7684	3099.5119	3120.8255	3143.9141	3537.7364	3788.3091
CC1(CO)COC(=N)O1	C[C@@]1(CO)CO[C]([NH])O1	
InChI=1S/C5H9NO3/c1-5(2-7)3-8-4(6)9-5/h6-7H,2-3H2,1H3	InChI=1S/C5H9NO3/c1-5(2-7)3-8-4(6)9-5/h6-7H,2-3H2,1H3/t5-/m1/s1
