19
gdb 107134	3.81095	1.1167	1.07297	3.2706	75.54	-0.2427	0.0509	0.2936	1234.5812	0.156015	-422.945434	-422.936536	-422.935592	-422.97897	33.642	
C	-0.0532299793	 1.5682172866	 0.3013555783	-0.378696
C	 0.0374909831	 0.0733462519	-0.037521275	-0.314022
C	-1.3095777908	-0.5569448155	-0.1879684284	 0.43695
O	-2.1088747757	-0.8173566963	 0.9685937638	-0.261187
C	-1.8469776732	-1.8946100847	 0.0664914361	-0.176572
C	-2.8195991297	-1.7553384827	-1.1821740152	 0.411695
C	-3.2949216919	-2.8550357433	-2.0702274977	-0.51006
O	-3.6392262409	-0.6079167364	-0.956595341	-0.255247
C	-2.3022418342	-0.4063158436	-1.4208616005	-0.160198
H	 0.944056788	 2.0052280051	 0.4047595592	 0.114852
H	-0.5834895581	 2.1215310934	-0.4806897593	 0.121186
H	-0.5930754296	 1.7172427827	 1.240674628	 0.139514
H	 0.5998517761	-0.0674129432	-0.969701749	 0.103799
H	 0.5847273691	-0.4590969771	 0.7481879772	 0.114644
H	-1.3869241635	-2.7960177148	 0.4555993713	 0.106733
H	-4.0337097565	-3.4789843406	-1.5545242541	 0.136239
H	-3.7603876908	-2.445040985	-2.9703602863	 0.138056
H	-2.4615760477	-3.4997767211	-2.3693114826	 0.126307
H	-2.1507910144	 0.1570428445	-2.3346796248	 0.106008
73.8098	116.875	179.2417	193.1174	225.2051	277.8526	325.8478	382.4461	441.9436	496.8712	576.4718	615.9844	716.2496	748.3198	781.6324	810.8775	856.3701	886.5293	927.2988	945.6093	984.3416	1000.2293	1018.2877	1063.5141	1095.7609	1105.7228	1158.201	1171.2475	1215.1664	1255.7533	1309.1652	1344.6443	1404.3486	1409.3016	1460.6621	1467.5173	1476.073	1485.352	1495.158	1496.804	1509.3055	3025.9501	3032.5825	3040.4692	3070.1376	3093.98	3109.3995	3120.5248	3120.9912	3181.2901	3182.3775
CCC12OC1C1(C)OC21	CC[C@]12O[C@H]1[C@@]1(C)O[C@@H]21	
InChI=1S/C7H10O2/c1-3-7-4-6(2,8-4)5(7)9-7/h4-5H,3H2,1-2H3	InChI=1S/C7H10O2/c1-3-7-4-6(2,8-4)5(7)9-7/h4-5H,3H2,1-2H3/t4-,5+,6+,7-/m1/s1
