23
gdb 60019	2.19756	0.93416	0.74742	3.2172	83.69	-0.2391	-0.0173	0.2218	1626.1865	0.201138	-425.442523	-425.431117	-425.430173	-425.480422	40.231	
C	-0.2961685268	 1.4652570665	-0.0602280816	-0.389084
C	 0.0149133154	-0.0333537176	-0.0343236924	 0.146346
C	 0.9703582919	-0.4433377284	-1.1498984979	-0.387001
O	 0.6420478924	-0.4057403838	 1.1956656689	-0.277139
C	-0.2236084887	-0.6676591209	 2.2940505549	 0.117501
C	-0.7814747447	-2.0922940957	 2.2397857709	-0.395664
C	 0.6102008003	-0.4418290304	 3.5648499176	-0.280319
C	 1.0565120868	 0.9939112718	 3.7307817685	 0.150268
O	 0.9346406296	 1.6309516981	 4.746951373	-0.245126
H	 0.6287516799	 2.0457196713	 0.0176835316	 0.124233
H	-0.7971112139	 1.7382128228	-0.9947218255	 0.115682
H	-0.9529575733	 1.7560852228	 0.7651541209	 0.117803
H	-0.9246159306	-0.5947223438	-0.1486465214	 0.069723
H	 1.9284295683	 0.0732871256	-1.0334943864	 0.12434
H	 1.1572893593	-1.519896668	-1.1190586669	 0.119679
H	 0.5563997617	-0.1863974513	-2.1294994349	 0.11357
H	-1.0629985888	 0.0455180716	 2.2891899193	 0.077802
H	-1.3483106149	-2.2607029083	 1.3195342789	 0.119999
H	 0.0362335525	-2.8189862287	 2.2759634696	 0.124648
H	-1.4524920991	-2.278620446	 3.0842783121	 0.118954
H	 0.0602634752	-0.7438464246	 4.4600126206	 0.116794
H	 1.509960233	-1.0677633141	 3.4814687029	 0.127923
H	 1.5205950444	 1.4367630812	 2.8240663375	 0.089068
35.5047	46.5574	83.0473	102.3129	178.1388	215.7463	221.2047	237.5371	259.7383	315.9207	357.1561	409.614	439.1746	451.8302	502.2268	536.6072	785.9356	813.337	871.942	926.3185	931.3081	942.5436	951.2047	989.9277	1053.9752	1112.3742	1128.9987	1142.6649	1158.8473	1165.5181	1200.3208	1249.863	1292.9854	1351.0447	1363.3986	1375.4778	1395.9798	1406.3189	1408.5985	1415.7674	1420.6245	1446.8022	1480.5246	1485.3088	1489.3643	1495.1053	1497.9705	1508.3245	1828.7822	2911.8688	2978.5426	2990.7236	3023.4191	3035.0779	3038.7074	3042.0593	3105.8082	3106.3197	3109.634	3112.9198	3115.4657	3116.808	3122.3653
CC(C)OC(C)CC=O	CC(C)O[C@@H](C)CC=O	
InChI=1S/C7H14O2/c1-6(2)9-7(3)4-5-8/h5-7H,4H2,1-3H3	InChI=1S/C7H14O2/c1-6(2)9-7(3)4-5-8/h5-7H,4H2,1-3H3/t7-/m0/s1
