20
gdb 121057	4.1042	0.85287	0.79338	3.0463	77.36	-0.256	0.0312	0.2871	1502.7921	0.171277	-440.29973	-440.290545	-440.289601	-440.33459	33.11	
C	-0.8115020714	 1.3831573166	 0.2777937084	-0.228057
O	-0.6993807824	 0.0052816514	 0.5502725518	-0.234086
C	-0.6098141387	-0.7828366587	-0.6127536372	-0.068882
C	-0.4794081651	-2.2402790974	-0.1743454363	 0.076862
C	-1.7429488171	-2.8087858663	 0.4933717873	-0.239513
C	-2.4963886569	-3.4290857327	-0.691672733	-0.303986
C	-1.3928178369	-3.7541690879	-1.6756744152	 0.413491
N	-1.4794280688	-4.5436208514	-2.6562098621	-0.539987
O	-0.2628512696	-3.0533790222	-1.342772188	-0.246405
H	-0.8729798398	 1.9016677715	 1.2373706152	 0.130955
H	 0.0618071807	 1.7602572882	-0.2764550324	 0.109594
H	-1.7150962846	 1.6101923066	-0.3092730719	 0.107852
H	-1.5031537751	-0.6537359328	-1.2485343473	 0.08904
H	 0.2666824002	-0.5046091405	-1.2193629745	 0.101533
H	 0.405740092	-2.3353676933	 0.4603666722	 0.09982
H	-1.4670928287	-3.5793334328	 1.2185351819	 0.115039
H	-2.2962791321	-2.0303901482	 1.020518343	 0.126049
H	-3.0716535933	-4.3216178343	-0.4451840564	 0.13779
H	-3.1864686302	-2.715852151	-1.1555267446	 0.132809
H	-0.5966363623	-4.574082915	-3.1695915808	 0.220081
61.526	83.1721	102.198	149.6198	195.7624	234.9513	328.3066	369.3514	462.4131	478.6002	519.9708	659.319	732.4512	804.8323	851.7314	893.691	902.76	960.9676	987.0819	1008.761	1013.5207	1094.3727	1103.5564	1105.9668	1164.3111	1176.466	1196.9433	1219.8227	1231.3228	1249.235	1273.3993	1306.7953	1327.4513	1364.7953	1382.1122	1425.3188	1473.6904	1481.2914	1486.313	1501.9908	1506.0529	1526.7619	1779.0767	2953.8559	2976.1894	2997.2943	3021.6256	3056.3002	3066.6069	3081.6629	3118.1694	3127.5418	3135.2657	3469.5292
COCC1CCC(=N)O1	COC[C@H]1CC[C]([NH])O1	
InChI=1S/C6H11NO2/c1-8-4-5-2-3-6(7)9-5/h5,7H,2-4H2,1H3	InChI=1S/C6H11NO2/c1-8-4-5-2-3-6(7)9-5/h5,7H,2-4H2,1H3/t5-/m1/s1
