20
gdb 15885	2.64904	1.75782	1.21687	2.7292	75.26	-0.235	-0.0157	0.2193	1069.1377	0.175478	-349.025071	-349.016124	-349.015179	-349.058762	32.836	
C	 0.1146267489	 1.7386335143	-0.1465221995	-0.388178
C	 0.359326128	 0.2462986767	 0.1087089613	-0.200916
C	 0.659581902	-0.5179226671	-1.1785219771	-0.079549
C	 0.8945673373	-2.0760592339	-1.2049990592	-0.031113
C	 0.3362048192	-2.847747481	-0.0126956729	-0.392769
C	 0.0049581527	-2.1789799772	-2.4864678582	-0.34529
C	-0.4693647148	-0.7470830306	-2.196776609	 0.390312
O	-1.4240399619	-0.1048095903	-2.5334345899	-0.30218
H	 0.9990860935	 2.2132371702	-0.586485882	 0.109973
H	-0.7201988044	 1.8778259671	-0.838205577	 0.148366
H	-0.1169192889	 2.2637838715	 0.7851560921	 0.109779
H	 1.1966049469	 0.1176327955	 0.8066374391	 0.097743
H	-0.5200713081	-0.1878012289	 0.5980323336	 0.103138
H	 1.4883973642	-0.0269432075	-1.7084726759	 0.097621
H	 1.9396488538	-2.3500797853	-1.3669451918	 0.074308
H	-0.7247411899	-2.6266659752	 0.1504871523	 0.121168
H	 0.4244912658	-3.926407641	-0.178912862	 0.11746
H	 0.8719910651	-2.6064844285	 0.9108064305	 0.119872
H	 0.578317344	-2.2329161317	-3.4175752611	 0.12668
H	-0.7706687935	-2.9495319969	-2.5084325235	 0.123573
61.7655	94.8149	149.9797	192.5592	245.1513	261.4281	301.0992	361.3725	424.7763	466.452	546.0364	701.2257	720.4044	782.0582	811.3307	873.0069	880.4682	960.9818	987.3734	1023.6929	1035.4787	1067.7021	1096.5182	1122.6832	1156.6779	1181.3161	1207.8209	1238.0732	1269.1692	1277.9739	1335.2147	1364.1553	1372.1406	1409.8895	1414.1988	1441.2749	1486.0406	1496.5811	1498.3958	1500.4116	1513.0175	1877.5838	3008.7281	3021.3043	3029.6495	3034.5428	3053.623	3061.3373	3072.0498	3097.7995	3100.322	3101.6652	3110.7004	3126.1127
CCC1C(C)CC1=O	CC[C@H]1[C@@H](C)CC1=O	
InChI=1S/C7H12O/c1-3-6-5(2)4-7(6)8/h5-6H,3-4H2,1-2H3	InChI=1S/C7H12O/c1-3-6-5(2)4-7(6)8/h5-6H,3-4H2,1-2H3/t5-,6-/m0/s1
