19
gdb 33418	2.6791	1.03556	0.78942	0.7007	86.79	-0.2568	0.0353	0.292	1452.9496	0.156324	-348.666905	-348.657122	-348.656178	-348.702036	36.328	
C	 0.1756851637	-1.2516557258	-0.1313886807	-0.472493
C	 0.1015757562	-0.0539291356	-0.0801829363	 0.363605
C	 0.0036777205	 1.4092082747	-0.0269454345	-0.35617
C	 1.3986458434	 2.1020338788	 0.0518238884	-0.20706
C	 2.1557056726	 1.7988611853	 1.3242947149	 0.026938
C	 3.0685199618	 0.6027752691	 1.4234600996	-0.243882
C	 3.6520239559	 1.9915412102	 1.3721383661	-0.285976
C	-0.7646224967	 1.9237155755	-1.1657658986	 0.321913
C	-1.3705966769	 2.3746587209	-2.0995318687	-0.437884
H	 0.2381406671	-2.3107842854	-0.17524541	 0.198747
H	-0.540137881	 1.675238223	 0.8920205159	 0.134647
H	 1.9856639538	 1.8014419281	-0.8223980983	 0.112801
H	 1.2252611981	 3.1804997375	-0.0363025965	 0.11319
H	 1.6193105656	 2.0623848191	 2.2334218574	 0.080496
H	 3.1049851618	 0.0603437509	 2.3615032519	 0.111267
H	 3.1675214924	-0.025170874	 0.54538842	 0.120026
H	 4.1502912335	 2.3000557243	 0.4586044401	 0.111608
H	 4.0877933535	 2.4057130169	 2.2745540352	 0.111296
H	-1.9166772753	 2.7614935465	-2.923982416	 0.19693
52.1728	87.5974	120.6965	131.4923	197.4998	238.9594	334.5899	353.9792	384.006	478.6318	562.6293	566.5149	630.4963	634.5162	638.1803	648.2584	773.2948	792.9606	834.4629	841.1699	920.0381	940.7584	982.1561	1039.0708	1058.0645	1070.5529	1080.0197	1129.4836	1139.4216	1197.4018	1228.1846	1247.7516	1280.1939	1325.4829	1350.186	1417.5324	1471.3907	1482.6591	1510.4621	2238.0645	2243.858	2992.6371	3039.4885	3084.3702	3127.4189	3130.6536	3141.8448	3209.9744	3228.1272	3503.8871	3505.2527
C#CC(CC1CC1)C#C	C#CC(CC1CC1)C#C	
InChI=1S/C9H10/c1-3-8(4-2)7-9-5-6-9/h1-2,8-9H,5-7H2	InChI=1S/C9H10/c1-3-8(4-2)7-9-5-6-9/h1-2,8-9H,5-7H2
