14
gdb 66085	2.38341	1.35486	1.1248	3.5728	63.16	-0.2657	-0.058	0.2077	1094.0457	0.097823	-473.801354	-473.792461	-473.791517	-473.835972	30.564	
O	-0.1033772201	 1.3893383283	-0.3101144437	-0.443272
C	-0.0096891612	 0.0141540244	-0.0434754365	 0.190456
C	 0.2826374508	-0.3817041242	 1.4348305122	-0.109539
O	-1.0616797711	-0.8591602217	 1.61678501	-0.276571
C	-1.4191059981	-0.5962713451	 0.2525626029	-0.002576
C	-2.5738131374	 0.3921932253	 0.1262424629	 0.151146
O	-3.2529684241	 0.4798832515	-0.8589691159	-0.225195
C	 0.7950476353	-0.6804671412	-1.0506399934	 0.237985
N	 1.4625464542	-1.2058114834	-1.8343602951	-0.319694
H	 0.7713747076	 1.7379102239	-0.5173242334	 0.306042
H	 1.0277953212	-1.1709632909	 1.5767834795	 0.131509
H	 0.511697638	 0.483067988	 2.066693435	 0.126664
H	-1.6474920563	-1.5045614488	-0.3142044214	 0.130733
H	-2.7328622688	 1.0091061937	 1.0356176768	 0.102313
48.572	70.9678	138.8371	180.5574	213.658	247.615	307.9584	381.8228	442.8762	482.9741	548.1321	574.0167	651.9653	841.3457	918.6688	963.6069	1000.7774	1017.5061	1051.7985	1073.9002	1139.1323	1155.6465	1198.6147	1266.6833	1297.413	1331.7593	1370.3776	1394.9533	1504.5162	1839.8115	2354.1281	2918.8727	3035.9824	3069.7889	3097.1452	3807.1556
OC1(COC1C=O)C#N	O[C@]1(CO[C@H]1C=O)C#N	
InChI=1S/C5H5NO3/c6-2-5(8)3-9-4(5)1-7/h1,4,8H,3H2	InChI=1S/C5H5NO3/c6-2-5(8)3-9-4(5)1-7/h1,4,8H,3H2/t4-,5-/m0/s1
