16
gdb 124658	4.43705	0.98457	0.88584	3.78	67.26	-0.2809	-0.065	0.2159	1309.1017	0.122325	-471.151682	-471.143188	-471.142244	-471.185514	30.387	
C	-0.1419252243	 1.5427063014	 0.11496932	-0.396149
C	 0.0315719227	 0.0376251916	-0.0025787793	 0.134071
C	 0.7449012508	-0.5906153744	 1.1881112826	-0.40138
O	-1.3250920612	-0.5019228957	-0.1097970997	-0.257693
C	-1.4631099733	-1.6884376783	-0.6556209606	 0.51722
N	-0.5305949169	-2.4732639211	-1.1278871756	-0.200528
O	-1.2292903948	-3.555522948	-1.5855873365	-0.155147
N	-2.5777084031	-3.3554480657	-1.3526714838	 0.059545
N	-2.7268386819	-2.2393224284	-0.7943648582	-0.227864
H	 0.8378818406	 2.0246549028	 0.1738263523	 0.128495
H	-0.6747758666	 1.9421517399	-0.7513321294	 0.134452
H	-0.7067099636	 1.7951258527	 1.0173181845	 0.135828
H	 0.5531350134	-0.2168562645	-0.9314849388	 0.120257
H	 0.8309743544	-1.6730447501	 1.0713555162	 0.14789
H	 1.7548559026	-0.1778721112	 1.2694898979	 0.129228
H	 0.2062343112	-0.3722634611	 2.1150702782	 0.131774
68.2363	75.432	154.5091	213.1606	250.4124	312.6626	324.1381	400.2509	449.8378	500.1816	650.7706	752.2209	763.6998	777.0091	855.5705	926.9358	938.8846	949.9264	968.0466	1061.7071	1105.8073	1136.1741	1163.2797	1205.5367	1322.7873	1368.1085	1383.0997	1405.0869	1421.0036	1480.4658	1485.4639	1494.9983	1510.0386	1519.8963	1632.6713	3046.1889	3050.1274	3058.5025	3118.0101	3127.0707	3130.3266	3136.4398
CC(C)OC1=NON=N1	CC(C)Oc1nonn1	
InChI=1S/C4H7N3O2/c1-3(2)8-4-5-7-9-6-4/h3H,1-2H3	InChI=1S/C4H7N3O2/c1-3(2)8-4-5-7-9-6-4/h3H,1-2H3
