17
gdb 73181	2.40208	1.49943	1.36813	4.419	72.04	-0.2558	-0.0042	0.2516	1032.2672	0.13629	-417.975397	-417.967113	-417.966169	-418.008537	30.988	
N	 0.1141240321	 1.3614571792	 0.0227720976	-0.595169
C	-0.036020512	-0.0669992029	-0.0477301078	 0.239027
C	 0.3140358939	-0.9014263686	-1.3216763338	-0.304563
C	-1.0651198523	-1.6290151208	-1.2239041457	-0.233643
C	-1.4026662719	-0.8153833086	 0.0433655957	 0.095265
O	-0.9981386635	-1.4933475983	 1.2593709437	-0.295356
C	 0.257841012	-0.7905739826	 1.2971006441	-0.018031
C	 1.4228197597	-1.6743399408	 1.3667273814	 0.283003
N	 2.3575328666	-2.3534687865	 1.4028634858	-0.33138
H	 1.0944133284	 1.6066357794	 0.1450703248	 0.238388
H	-0.1779916257	 1.7924461923	-0.8501105264	 0.234625
H	 0.4007465738	-0.2624160254	-2.2044620983	 0.102326
H	 1.2076915878	-1.5268241362	-1.2591531824	 0.130346
H	-1.7297433375	-1.4267442517	-2.0673437463	 0.107995
H	-1.0299211094	-2.7052236399	-1.0477303489	 0.126969
H	-2.377383342	-0.3350738285	 0.1474102906	 0.090298
H	 0.29207475	-0.0823707503	 2.1341942259	 0.1299
63.227	130.7581	157.4373	201.2895	288.6462	360.8539	368.9843	409.8051	537.5438	545.8227	655.4049	661.65	739.5508	843.7553	850.9642	874.7697	898.5621	947.0696	970.1874	1020.4271	1032.4786	1049.9327	1106.319	1134.6239	1182.5653	1211.2875	1225.0062	1236.4812	1273.8218	1306.6208	1317.1909	1345.6569	1373.9172	1466.1243	1485.8357	1654.4764	2353.0529	3035.1625	3060.6326	3071.2355	3098.6541	3112.8217	3135.7032	3475.2217	3552.9137
NC12CCC1OC2C#N	N[C@]12CC[C@H]1O[C@H]2C#N	
InChI=1S/C6H8N2O/c7-3-5-6(8)2-1-4(6)9-5/h4-5H,1-2,8H2	InChI=1S/C6H8N2O/c7-3-5-6(8)2-1-4(6)9-5/h4-5H,1-2,8H2/t4-,5+,6-/m1/s1
