16
gdb 49854	3.14155	1.3444	1.08285	2.0225	68.88	-0.2536	-0.0432	0.2104	1087.2236	0.123857	-437.888183	-437.880449	-437.879505	-437.921098	28.712	
O	-0.6107121715	 0.8849929355	-0.6500577048	-0.235074
C	 0.1094225816	 1.0815692792	 0.2940239692	 0.157681
C	 1.395780942	 1.887445881	 0.2382989046	-0.067875
C	 1.6815950423	 2.5866521473	-1.095695603	-0.378025
C	 2.243425063	 3.9559868971	-0.6852446812	 0.421331
O	 2.9047166837	 4.6954855012	-1.3649106224	-0.315815
C	 1.8733815266	 4.1719025154	 0.7552617	-0.135609
C	 0.4202222249	 3.9982266001	 1.0587695932	-0.252956
N	 1.3609041379	 2.9128404127	 1.3333851178	-0.11548
H	-0.1322351719	 0.6904186585	 1.3056759686	 0.102467
H	 2.2138549394	 1.2044669069	 0.5035926907	 0.116058
H	 2.4089544319	 2.0595671633	-1.7145487921	 0.145603
H	 0.7747149073	 2.7030085785	-1.6987650698	 0.156708
H	 2.5014282165	 4.8084901127	 1.3682993673	 0.122388
H	 0.0156087412	 4.4841974748	 1.9407224092	 0.139387
H	-0.2757942549	 3.9053661358	 0.2283174128	 0.139212
64.7017	97.3876	198.7687	202.8	322.0346	422.8195	457.8768	539.6571	585.9989	620.3097	682.7143	767.4848	797.5759	856.2863	870.1009	906.1888	962.5036	986.6915	1042.8344	1079.9545	1106.4757	1115.4493	1153.3812	1166.1368	1193.2489	1227.8552	1258.2514	1301.0514	1332.3762	1359.3469	1411.349	1458.1847	1510.7188	1832.2386	1849.1378	2908.8545	3022.1943	3065.5648	3113.4397	3128.4845	3183.3496	3205.0826
O=CC1CC(=O)C2CN12	O=C[C@H]1CC(=O)[C@H]2CN12	
InChI=1S/C6H7NO2/c8-3-4-1-6(9)5-2-7(4)5/h3-5H,1-2H2	InChI=1S/C6H7NO2/c8-3-4-1-6(9)5-2-7(4)5/h3-5H,1-2H2/t4-,5-,7?/m1/s1
