18
gdb 128853	3.66906	0.98778	0.87579	3.8285	73.59	-0.2556	0.014	0.2696	1358.4316	0.149234	-435.277123	-435.268446	-435.267502	-435.312293	30.13	
C	-0.5388149537	 0.8867165976	 0.9943149072	-0.231601
O	-0.095457483	-0.4452726444	 0.857801716	-0.232072
C	 1.2725099707	-0.5466567259	 0.5395840648	-0.057597
C	 1.6483375426	-2.0230010647	 0.5572885525	-0.175823
N	 1.5908866906	-2.5945472856	 1.8900303242	 0.054399
C	 0.5204983538	-2.9736104014	 2.6183905292	 0.023409
N	 0.8959914447	-3.38047004	 3.8178115526	-0.279895
C	 2.2460421107	-3.2158731987	 3.7720938746	 0.036155
N	 2.7194178176	-2.7406483951	 2.6312812487	-0.255388
H	-0.412354201	 1.4544154619	 0.0595860592	 0.108763
H	-1.6009642269	 0.851429431	 1.2460513769	 0.134172
H	 0.0014291515	 1.4136161933	 1.7952042628	 0.114802
H	 1.4777191376	-0.1317867681	-0.4616172697	 0.095254
H	 1.8906200103	 0.0045342016	 1.2658394563	 0.111724
H	 0.9662015187	-2.5766320576	-0.0945790716	 0.135474
H	 2.6693956823	-2.1592118877	 0.1978197265	 0.143756
H	-0.487167281	-2.9258727447	 2.2367327262	 0.150016
H	 2.8989473344	-3.4579080016	 4.5975017836	 0.124453
28.9238	66.661	112.6456	149.9371	234.9376	255.6176	339.8764	366.3914	528.3292	665.8455	688.2064	697.1446	851.7402	857.3797	905.2933	969.08	983.4325	1022.4134	1048.0567	1092.1422	1165.2928	1167.7982	1180.5312	1194.7502	1232.206	1242.2077	1273.4402	1311.5715	1349.2705	1389.184	1397.0035	1416.3071	1458.4695	1474.65	1481.0523	1487.2434	1501.3207	1524.9633	1550.5585	2964.0107	2980.887	3005.3372	3028.2309	3072.4562	3122.625	3139.4481	3257.7695	3273.7297
COCCN1C=NC=N1	COCCn1cncn1	
InChI=1S/C5H9N3O/c1-9-3-2-8-5-6-4-7-8/h4-5H,2-3H2,1H3	InChI=1S/C5H9N3O/c1-9-3-2-8-5-6-4-7-8/h4-5H,2-3H2,1H3
