21
gdb 113978	3.97843	0.65021	0.60643	1.7392	86.01	-0.2595	0.0561	0.3157	1892.5889	0.179688	-387.04476	-387.034356	-387.033412	-387.081377	37.261	
C	-0.1256230625	 1.3962083123	-0.6428209749	-0.37476
C	-0.0316779162	 0.2224621827	 0.3405819666	-0.215055
C	-1.3435151179	-0.516932154	 0.4515792179	 0.075431
O	-1.7219636719	-1.3593583326	-0.6465707008	-0.268768
C	-1.5018930368	-1.9700325439	 0.6331662897	 0.046896
C	-0.3758732334	-2.9698548746	 0.7326265758	-0.221945
C	-0.7160291022	-4.2649634898	-0.0388291765	-0.342764
C	 0.3354969742	-5.2693144691	 0.0517523561	 0.290413
C	 1.2194691731	-6.0785832002	 0.1447037219	-0.438048
H	 0.827893702	 1.9273247907	-0.7143614782	 0.114499
H	-0.3939532378	 1.0385977224	-1.6412800042	 0.135066
H	-0.8882441961	 2.1171598497	-0.3286786824	 0.115708
H	 0.7594371242	-0.4616431515	 0.0212430354	 0.107704
H	 0.2446064579	 0.5894435815	 1.3377357339	 0.101773
H	-2.1672645919	 0.104133487	 0.8151568302	 0.084321
H	-2.4274930686	-2.3010264039	 1.1129725046	 0.085981
H	 0.5525445818	-2.554505918	 0.3348694122	 0.118451
H	-0.1992317166	-3.2099463931	 1.7875890296	 0.113416
H	-1.6568479136	-4.6830344325	 0.3429534993	 0.128572
H	-0.8991444243	-4.0076928842	-1.0888661614	 0.149716
H	 1.9918810366	-6.8032895288	 0.2168138251	 0.193392
46.4465	68.0462	78.8029	103.0405	178.7718	208.921	240.2059	285.6181	348.1424	419.9021	477.1977	511.7674	567.0178	616.5889	638.1699	739.5191	773.5082	819.656	825.3403	934.5	961.0293	972.5734	1023.0937	1037.3395	1046.8788	1108.2679	1114.902	1162.2142	1185.2049	1215.7519	1277.4877	1291.6309	1305.2119	1314.8473	1342.687	1371.3347	1407.6483	1419.0037	1467.0603	1474.9485	1485.5094	1496.3853	1499.0153	1509.7963	2239.3735	3021.6459	3029.2729	3036.9431	3046.2746	3057.8796	3062.3714	3071.3293	3087.236	3108.0559	3116.2621	3118.4725	3508.0123
CCC1OC1CCC#C	CC[C@H]1O[C@H]1CCC#C	
InChI=1S/C8H12O/c1-3-5-6-8-7(4-2)9-8/h1,7-8H,4-6H2,2H3	InChI=1S/C8H12O/c1-3-5-6-8-7(4-2)9-8/h1,7-8H,4-6H2,2H3/t7-,8+/m1/s1
