19
gdb 87326	1.85858	1.33001	0.90451	2.6814	83.31	-0.2379	-0.0207	0.2172	1341.4015	0.155408	-385.855679	-385.845601	-385.844657	-385.891381	36.319	
C	-0.002769831	 1.5220000861	-0.0663492744	-0.417853
C	 0.075076051	 0.0139094345	 0.0107340284	-0.03642
C	 1.3772681653	-0.7227477369	-0.1074105078	-0.318427
C	 0.6320738368	-0.7349603219	 1.2268505556	 0.113244
C	 1.2345415636	 0.0300442567	 2.4066709041	-0.363902
C	 2.379708696	-0.7300120676	 3.0500017013	 0.167455
O	 3.448965559	-0.2426026914	 3.3135728053	-0.244221
C	-0.0471360632	-1.9505908755	 1.5936894422	 0.283626
C	-0.6214330284	-2.9571198573	 1.9191475807	-0.459644
H	 0.8974927804	 2.0060692843	 0.3208132649	 0.125027
H	-0.1147547821	 1.835740292	-1.1098022634	 0.126715
H	-0.8624100484	 1.9091464342	 0.4910350243	 0.125876
H	-0.7774217522	-0.4917730919	-0.4334680491	 0.104713
H	 1.4158078547	-1.6452149585	-0.6741486891	 0.128107
H	 2.2883795289	-0.132825087	-0.1379436624	 0.125548
H	 1.6107577744	 1.0104819652	 2.1099535235	 0.121551
H	 0.4594148785	 0.1801433689	 3.1709430612	 0.129827
H	 2.1615450749	-1.798076519	 3.2689846334	 0.092624
H	-1.1252515183	-3.8487339049	 2.1994522414	 0.196154
48.7508	67.822	136.3016	142.0985	160.0889	200.6911	268.1391	321.9682	379.4356	449.6214	473.6132	538.117	553.5739	585.3431	652.0357	676.5346	787.1466	810.5227	891.1496	905.1025	939.8825	993.3666	1025.5696	1061.4714	1080.2213	1110.4934	1127.5717	1186.7092	1211.201	1275.7208	1292.9518	1314.8351	1404.0216	1420.9787	1427.1489	1453.3245	1483.9166	1492.803	1501.9689	1831.7328	2228.7914	2900.856	3022.7027	3035.6612	3094.8351	3110.4443	3125.0905	3132.2105	3153.4005	3225.7771	3502.4589
CC1CC1(CC=O)C#C	C[C@H]1C[C@]1(CC=O)C#C	
InChI=1S/C8H10O/c1-3-8(4-5-9)6-7(8)2/h1,5,7H,4,6H2,2H3	InChI=1S/C8H10O/c1-3-8(4-5-9)6-7(8)2/h1,5,7H,4,6H2,2H3/t7-,8+/m0/s1
