19
gdb 93111	2.40497	1.63032	1.35942	1.4751	75.76	-0.2518	0.0158	0.2677	1035.9815	0.159879	-423.017998	-423.009898	-423.008954	-423.050362	31.924	
O	 0.0521520484	 1.4419299693	-0.041060138	-0.440493
C	-0.0045374651	 0.0191519447	-0.0209369532	 0.033579
C	 0.7028145175	-0.5650274255	 1.2087727289	-0.280543
C	-0.1052795921	-0.3263236463	 2.4623905957	-0.084551
C	-1.4188767404	-0.0917530049	 2.4498985631	-0.045972
C	-2.2479511116	-0.047440747	 1.18982187	-0.347225
C	-1.4489178479	-0.4609886419	-0.0331488923	 0.433203
C	-2.1125841515	-0.7927141561	-1.2943504607	-0.251545
O	-1.5951425942	-1.8288182895	-0.4489570108	-0.284646
H	-0.1275246097	 1.7485970473	 0.8552644467	 0.285086
H	 0.4917485698	-0.3162748197	-0.9363341284	 0.088441
H	 0.8587508264	-1.6417277562	 1.0591549865	 0.131966
H	 1.6974442979	-0.1132333189	 1.2965459812	 0.109054
H	 0.4255969122	-0.3557872704	 3.410452305	 0.091747
H	-1.9474284471	 0.0805915259	 3.3842456264	 0.091306
H	-3.1171788074	-0.7093505723	 1.2806483548	 0.124672
H	-2.6497171124	 0.9657229181	 1.044209988	 0.119644
H	-3.1993202987	-0.7490655205	-1.3608572161	 0.110404
H	-1.5856451742	-0.648348726	-2.2366981167	 0.115871
100.0311	141.32	211.2579	300.3307	330.3852	349.4654	396.8413	407.7367	453.5169	520.5915	595.9666	679.4713	698.1042	821.2983	858.407	890.8208	910.0417	928.3617	968.4281	984.282	1007.8689	1016.6533	1046.124	1085.79	1126.0958	1158.2618	1170.7418	1197.8184	1219.6559	1273.3646	1295.5223	1307.3403	1334.8891	1367.3237	1407.0414	1419.6158	1445.0983	1459.7895	1466.382	1532.2557	1715.1698	3007.4229	3023.2936	3058.0124	3064.7052	3072.1757	3079.0877	3147.4113	3164.6389	3170.3408	3792.1811
OC1CC=CCC11CO1	O[C@H]1CC=CC[C@]21CO2	
InChI=1S/C7H10O2/c8-6-3-1-2-4-7(6)5-9-7/h1-2,6,8H,3-5H2	InChI=1S/C7H10O2/c8-6-3-1-2-4-7(6)5-9-7/h1-2,6,8H,3-5H2/t6-,7+/m0/s1
