17
gdb 18235	4.68178	1.62782	1.34059	2.7293	71.74	-0.2387	0.0301	0.2688	946.2159	0.143483	-363.867293	-363.859948	-363.859003	-363.899099	27.308	
C	-0.0214802306	 1.4065871891	-0.1350761233	-0.328453
N	-0.0348314233	-0.0451823344	-0.2077807532	-0.338662
C	-1.1017646184	-0.6671485204	 0.0374289103	 0.45423
O	-2.3140165788	-0.075853433	 0.3343127791	-0.26115
C	-3.2086857185	-1.0266514134	 0.9339187036	-0.102146
C	-2.644213522	-2.4000944041	 0.6202094863	-0.061029
C	-2.3755079265	-2.6810463767	-0.8266979324	-0.286787
C	-1.2638755658	-2.1437953819	 0.0559254651	-0.131765
H	 0.9285453959	 1.7313023472	 0.3015332847	 0.118094
H	-0.0672227417	 1.8278432914	-1.1473343337	 0.123186
H	-0.8487187571	 1.8313746084	 0.4458025879	 0.118063
H	-3.2465755568	-0.85144691	 2.0164758084	 0.113439
H	-4.205591654	-0.8516987373	 0.5162706573	 0.11749
H	-2.8398210495	-3.2122924946	 1.3088681591	 0.101673
H	-2.2909651654	-3.7188848915	-1.1274440535	 0.122324
H	-2.8003936793	-2.022099098	-1.5775418838	 0.127916
H	-0.3960267882	-2.7512265208	 0.269496678	 0.113578
87.7017	124.0069	192.6012	245.1712	307.9097	381.5606	461.5924	641.4351	705.5478	733.8506	785.8586	828.8741	850.3425	913.3654	976.8505	991.1348	1014.1602	1045.4473	1073.3198	1078.9562	1102.7995	1125.9008	1126.4136	1160.4395	1196.3372	1206.2971	1236.3829	1342.2408	1367.8512	1398.7182	1438.9637	1486.2431	1492.5931	1497.8226	1520.0693	1802.5239	3012.1362	3024.5191	3068.8565	3074.4638	3088.8951	3131.8598	3193.3168	3218.7309	3227.7139
CN=C1OCC2CC12	CN=C1OC[C@H]2C[C@@H]12	
InChI=1S/C6H9NO/c1-7-6-5-2-4(5)3-8-6/h4-5H,2-3H2,1H3	InChI=1S/C6H9NO/c1-7-6-5-2-4(5)3-8-6/h4-5H,2-3H2,1H3/t4-,5-/m1/s1
