21
gdb 83341	2.07997	1.64142	1.50155	0.9353	77.72	-0.2291	0.0663	0.2954	1061.5022	0.182286	-424.206799	-424.197922	-424.196978	-424.239517	34.838	
C	-0.0927172368	 1.6315465307	-0.0361604487	-0.44525
C	 0.0112008598	 0.1164878333	 0.0051946055	-0.007755
C	 1.1464409242	-0.6059356127	-0.761180161	 0.028466
O	 2.352145979	-0.0200456028	-0.2436561472	-0.280367
C	 2.088153996	-0.0171185709	 1.1818815467	-0.125943
C	 0.6895970763	-0.6426781192	 1.2147001213	 0.256508
C	 0.0090077509	-0.8596223943	 2.5432013229	-0.513784
C	 0.9383277127	-1.8096567165	 0.202168293	 0.089953
O	-0.2202259742	-2.5920584312	 0.0294533296	-0.440316
H	 0.8914599233	 2.1063372389	-0.0177586954	 0.132083
H	-0.5970700538	 1.9563649633	-0.9527030313	 0.114845
H	-0.6766462432	 2.0137684928	 0.8089254887	 0.113486
H	-0.9478511639	-0.3577181915	-0.2070167213	 0.09021
H	 1.2104397304	-0.6868762939	-1.8467001678	 0.06833
H	 2.8413834182	-0.6195282959	 1.7043596398	 0.098062
H	 2.1229842137	 1.0058374024	 1.5743888642	 0.098982
H	-0.2353966359	 0.0942688751	 3.0240214565	 0.117081
H	-0.918652791	-1.4230767317	 2.409589961	 0.136542
H	 0.6486060872	-1.4241376843	 3.2317647484	 0.115328
H	 1.8303503725	-2.4276252079	 0.3740683969	 0.065505
H	-0.0883099853	-3.1583173137	-0.7373115519	 0.288034
162.5533	191.958	194.5234	216.4996	233.3467	276.9876	311.0795	321.4331	370.5598	428.8997	519.4611	614.0787	620.3833	695.6857	759.1229	804.8742	891.075	926.5562	929.8215	980.7699	987.38	1006.0806	1059.1606	1065.039	1105.186	1134.1331	1145.9293	1169.0521	1200.7419	1213.2965	1242.4861	1245.5174	1260.6486	1276.5064	1321.1551	1369.7001	1390.9355	1406.7885	1413.4627	1430.514	1489.0476	1491.0043	1497.2191	1504.3407	1537.2604	3009.1815	3020.0411	3027.8451	3033.1686	3058.0825	3086.4788	3088.9722	3103.8507	3111.9228	3118.7228	3125.4086	3818.5101
CC1C2OCC1(C)C2O	C[C@H]1[C@H]2OC[C@]1(C)[C@H]2O	
InChI=1S/C7H12O2/c1-4-5-6(8)7(4,2)3-9-5/h4-6,8H,3H2,1-2H3	InChI=1S/C7H12O2/c1-4-5-6(8)7(4,2)3-9-5/h4-6,8H,3H2,1-2H3/t4-,5+,6-,7-/m0/s1
