16
gdb 96956	3.96811	1.29325	1.23577	3.1153	70.8	-0.25	0.0216	0.2716	1055.613	0.123718	-437.815189	-437.807663	-437.806718	-437.847675	28.118	
C	-0.1007900836	 1.4047720899	-0.1248176575	-0.339123
N	-0.0171795736	-0.0490083771	-0.1321148334	-0.337128
C	-1.0615500422	-0.7242802629	-0.0489442135	 0.497184
O	-2.3974808476	-0.3207002742	 0.0963448016	-0.276453
C	-2.8436472642	-1.6981571709	 0.1526269877	 0.084209
C	-3.203838084	-2.3368965292	-1.2231405428	-0.010173
O	-2.3240178993	-1.7797683842	-2.1967505083	-0.21766
C	-1.8194560628	-2.8277285437	-1.3752344887	 0.030921
C	-1.3937413413	-2.2046748468	-0.0111740515	-0.266475
H	 0.5342560737	 1.7943450914	 0.6780559441	 0.12606
H	 0.3039663495	 1.7877116337	-1.0679677194	 0.131984
H	-1.1170508972	 1.7936069388	 0.0048908204	 0.128635
H	-3.4858847692	-1.9122922144	 1.0053745676	 0.101624
H	-4.1551469507	-2.7246926041	-1.5679920569	 0.115373
H	-1.4181823764	-3.7066021623	-1.864455532	 0.120815
H	-0.8940044112	-2.8493876339	 0.7074275526	 0.110207
78.9948	99.7935	201.7879	218.7443	300.0738	394.3442	493.941	598.6408	709.3993	714.9455	779.2333	809.0041	840.2523	879.9989	887.4993	917.876	961.0709	993.693	1016.1989	1042.6033	1054.5963	1080.6691	1132.0362	1160.0613	1165.4232	1203.043	1218.9444	1244.0176	1267.2707	1300.5425	1376.7268	1439.7335	1494.5163	1496.7523	1854.3548	3020.4538	3086.2687	3092.2051	3133.4423	3156.7901	3186.3098	3203.5805
CN=C1OC2C3OC3C12	CN=C1O[C@H]2[C@H]3O[C@H]3[C@@H]12	
InChI=1S/C6H7NO2/c1-7-6-2-3-5(8-3)4(2)9-6/h2-5H,1H3	InChI=1S/C6H7NO2/c1-7-6-2-3-5(8-3)4(2)9-6/h2-5H,1H3/t2-,3+,4-,5+/m1/s1
