19
gdb 54426	2.51291	1.47007	1.179	3.0147	76.69	-0.2374	0.0192	0.2566	1121.4094	0.159466	-419.217174	-419.208225	-419.207281	-419.250637	34.105	
C	 0.475953411	 1.3665382886	-0.1294403974	-0.478509
C	 0.0722650752	-0.062709837	 0.0684682245	 0.292842
C	-1.3576693176	-0.6273455982	-0.0108274405	-0.288123
C	-1.0062848878	-1.6265465407	 1.1393686405	-0.300631
C	 0.4140933252	-1.0587463714	 1.1699386139	 0.2166
N	 1.0540686312	-1.11841408	-0.147475269	-0.418764
C	 1.2418406623	-0.8888396081	 2.4025700358	 0.308574
N	 2.5505799018	-0.5946609634	 2.1604364569	-0.541922
O	 0.7534780293	-0.9739606673	 3.5157189735	-0.372113
H	 1.4970431424	 1.5304120953	 0.2239496957	 0.132797
H	 0.4349680663	 1.6378347777	-1.1911320117	 0.123588
H	-0.1934175356	 2.0393259443	 0.415940286	 0.125959
H	-2.1208674044	 0.0966326733	 0.2833889992	 0.11457
H	-1.6375867876	-1.0538361476	-0.9802318507	 0.097079
H	-1.5438814074	-1.4158747774	 2.0640448785	 0.137612
H	-1.0826170575	-2.6961966595	 0.9180806711	 0.096826
H	 0.7072994357	-1.8916807953	-0.7133206295	 0.227472
H	 2.9104528429	-0.7172653638	 1.2277348057	 0.268832
H	 3.1790952144	-0.5429574194	 2.9446308477	 0.257312
75.1233	126.4392	176.8036	194.1861	238.1879	327.3303	339.6748	385.3894	415.5517	493.6669	508.3642	598.1175	641.916	673.8959	748.1799	774.3162	786.5435	839.2579	936.1087	944.8865	992.486	1057.1727	1076.4228	1077.0893	1100.1014	1141.8732	1174.8926	1202.7504	1221.9077	1234.606	1250.4682	1293.6626	1379.9063	1409.6999	1461.3261	1478.082	1484.4031	1491.7066	1503.478	1592.0377	1785.9526	3030.5671	3043.26	3053.7049	3093.4425	3106.5979	3122.8333	3138.9109	3455.7461	3588.6153	3729.7588
CC12CCC1(N2)C(N)=O	C[C@]12CC[C@]1(N2)C(=O)N	
InChI=1S/C6H10N2O/c1-5-2-3-6(5,8-5)4(7)9/h8H,2-3H2,1H3,(H2,7,9)	InChI=1S/C6H10N2O/c1-5-2-3-6(5,8-5)4(7)9/h8H,2-3H2,1H3,(H2,7,9)/t5-,6-/m0/s1
