17
gdb 34690	3.98593	1.47858	1.35814	0.8577	79.68	-0.222	0.0593	0.2813	971.307	0.137108	-347.471837	-347.465154	-347.464209	-347.502728	28.081	
C	 0.0688616712	-1.2113148196	 0.0684239508	-0.474006
C	 0.0307833253	-0.0098556346	 0.0426340732	 0.333424
C	-0.0186267056	 1.4468984043	 0.0066742303	-0.188778
C	-0.5508590682	 2.084998792	 1.2891174968	-0.075155
C	 0.5743333892	 2.3479407373	 2.2675292283	-0.072285
C	-0.0043749162	 3.4878873706	 1.4513154601	-0.10531
C	 1.2750072261	 3.509657414	 0.5762781251	-0.105308
C	 1.8522729799	 2.369658946	 1.3934442649	-0.072291
C	 1.3543506341	 2.1174286585	-0.0140146766	-0.07515
H	 0.1031538327	-2.2721326961	 0.0920994348	 0.190983
H	-0.6146399332	 1.7703885026	-0.8566576942	 0.102216
H	-1.5385105693	 1.8432657009	 1.6616056633	 0.094768
H	 0.517936717	 2.1558634714	 3.3295445118	 0.087972
H	-0.5909671901	 4.3404083494	 1.7640812566	 0.08809
H	 1.7592036753	 4.3804000468	 0.156675596	 0.088091
H	 2.8667108702	 2.1957527015	 1.7230257766	 0.087971
H	 2.0648437716	 1.9045905351	-0.8030250378	 0.094768
118.6626	149.6844	348.7154	462.8703	492.8232	589.173	622.9326	625.7385	689.9435	724.723	752.2669	771.7645	784.6006	818.5374	858.2069	895.8747	922.4751	936.3556	957.3037	967.6488	988.3015	988.9693	1038.8758	1040.0068	1054.0576	1058.0716	1090.7556	1110.497	1210.9267	1230.8023	1245.2283	1274.1638	1279.8732	1317.6773	1370.9605	1387.5586	2235.106	3024.6433	3194.4682	3197.7202	3200.7644	3210.5249	3214.1255	3223.3538	3505.5682
C#CC1C2C3C2C2C3C12	C#C[C@H]1[C@H]2[C@@H]3[C@H]2[C@H]2[C@@H]3[C@@H]12	
InChI=1S/C9H8/c1-2-3-4-6-7(4)9-5(3)8(6)9/h1,3-9H	InChI=1S/C9H8/c1-2-3-4-6-7(4)9-5(3)8(6)9/h1,3-9H/t3-,4-,5+,6+,7-,8+,9-
