20
gdb 126150	3.83774	0.99411	0.85236	2.422	80.34	-0.2559	0.0134	0.2693	1402.5052	0.172397	-399.368675	-399.359523	-399.358579	-399.403485	33.352	
C	-0.0087783581	 1.5347369419	 0.1389592148	-0.398147
C	 0.1065804472	 0.0081594226	 0.0986707016	-0.157731
C	 0.6767168694	-0.5403293511	-1.220878915	-0.076555
C	 2.1292165704	-0.0967412338	-1.4857831067	-0.394814
C	 0.5862589701	-2.0396818305	-1.2910157704	 0.352451
N	 0.2680593343	-2.8097384489	-0.2598438745	-0.27372
N	 0.3286899988	-4.0545252715	-0.79460984	-0.185524
C	 0.6722221813	-3.985819365	-2.0950359722	 0.013799
N	 0.8450453716	-2.7300245181	-2.4481053323	-0.305707
H	 0.9679185101	 2.024714185	 0.0795623234	 0.116987
H	-0.6190722453	 1.9097656984	-0.6908983675	 0.111315
H	-0.4815705881	 1.8616773976	 1.0703100985	 0.111078
H	 0.7296535732	-0.3419529955	 0.9302833537	 0.104619
H	-0.8815053346	-0.4350562821	 0.2624461117	 0.103928
H	 0.0630809729	-0.1572360297	-2.0486021192	 0.091685
H	 2.5022989995	-0.548375448	-2.4081632595	 0.135156
H	 2.1987921985	 0.989788426	-1.5848129902	 0.113123
H	 2.7842227105	-0.4076437887	-0.6640906398	 0.114056
H	 0.1238253729	-4.857384422	-0.2233580969	 0.27963
H	 0.7789170855	-4.8552353067	-2.7266868196	 0.144368
34.7136	82.7824	153.9431	173.9787	221.5013	273.7193	299.4929	348.2664	425.9611	462.6795	527.0185	679.8959	701.6786	772.7155	795.5698	856.827	861.7442	964.752	978.9676	995.7704	1004.7626	1039.786	1094.288	1107.4101	1137.5446	1174.478	1181.3501	1250.6461	1295.1639	1309.7012	1347.3792	1353.6096	1390.1782	1405.2559	1414.5786	1470.7027	1477.3241	1482.8754	1495.6914	1502.5927	1509.5997	1512.9683	1555.2052	3007.0222	3031.1824	3036.8523	3039.8661	3070.7066	3097.7941	3105.4077	3110.2486	3126.2926	3255.3898	3667.8594
CCC(C)C1=NNC=N1	CC[C@@H](C)c1n[nH]cn1	
InChI=1S/C6H11N3/c1-3-5(2)6-7-4-8-9-6/h4-5H,3H2,1-2H3,(H,7,8,9)	InChI=1S/C6H11N3/c1-3-5(2)6-7-4-8-9-6/h4-5H,3H2,1-2H3,(H,7,8,9)/t5-/m1/s1
