17
gdb 27350	1.89002	1.81194	0.93208	7.1271	80.68	-0.2037	-0.002	0.2017	1217.4898	0.137546	-418.077371	-418.068875	-418.067931	-418.110176	32.503	
C	-0.0133280974	 1.5068414908	 0.0855627436	-0.493959
C	 0.0002457348	 0.0109444494	-0.0346959163	 0.40665
C	-0.0408906127	-0.6746911264	-1.1983756254	-0.342626
C	-0.0101359236	-2.1430182578	-1.2507131144	 0.40871
O	-0.0477601094	-2.7696331922	-2.3071189335	-0.414489
C	 0.0462212476	-2.7798225165	 0.0602389575	-0.352269
C	 0.0909075919	-2.0539893969	 1.2080827384	 0.430041
N	 0.2304799243	-2.5784990149	 2.4958296761	-0.589227
N	 0.0539351188	-0.6795352708	 1.1628734674	-0.42985
H	 0.8824580871	 1.8729431768	 0.6027029769	 0.13413
H	-0.0444073349	 1.9666072428	-0.9027524381	 0.150879
H	-0.8851677781	 1.8529598674	 0.6536070447	 0.136429
H	-0.099951179	-0.1431819003	-2.140407344	 0.101009
H	 0.0358026156	-3.8626787459	 0.1010465877	 0.090901
H	 0.1832563914	-3.5882421971	 2.5034747943	 0.261475
H	-0.4269994739	-2.1969780105	 3.1663222586	 0.249456
H	 0.2632152174	-0.1733169178	 2.0086677665	 0.252741
127.718	169.5444	173.8682	219.1945	282.2066	288.6454	344.679	449.7874	504.1292	516.1404	539.5728	556.5295	609.0945	628.6396	728.6359	752.7406	851.1173	879.8727	928.8707	974.3392	1012.9418	1063.8145	1065.4559	1139.7639	1182.448	1243.3497	1263.8841	1361.2591	1410.638	1421.5449	1480.176	1485.2765	1536.2466	1639.9234	1665.067	1699.7738	1726.7873	3024.1378	3074.3647	3144.8109	3200.0038	3208.0047	3530.1022	3634.8477	3635.5817
CC1=CC(=O)C=C(N)N1	Cc1cc(=O)cc(N)[nH]1	
InChI=1S/C6H8N2O/c1-4-2-5(9)3-6(7)8-4/h2-3H,1H3,(H3,7,8,9)	InChI=1S/C6H8N2O/c1-4-2-5(9)3-6(7)8-4/h2-3H,1H3,(H3,7,8,9)
