21
gdb 105268	2.19509	1.44339	1.03269	1.8241	79.01	-0.2482	0.0854	0.3336	1245.8327	0.180083	-424.178428	-424.168597	-424.167653	-424.213088	36.004	
C	 0.9532159154	 1.2496894642	 0.2178306369	-0.248262
O	 0.0949076886	 0.1855050859	-0.1530490378	-0.283619
C	 0.524450425	-0.5533299338	-1.2612743988	 0.38679
C	 1.6659410316	-1.5263821757	-1.0894498434	-0.367843
C	 0.2393843718	-2.0305556665	-1.2062552115	-0.051251
C	-0.4659528207	-2.6481060026	-0.02069806	-0.406246
C	 0.3397477129	 0.1733549173	-2.564965566	 0.008397
C	 1.4480003684	 0.7991322923	-3.3026727819	-0.178378
O	 0.8886699309	-0.4466879707	-3.7263185695	-0.231587
H	 1.9724683037	 0.8942928615	 0.4236789285	 0.108696
H	 1.0055267543	 2.0278979422	-0.555490547	 0.11143
H	 0.5367611541	 1.686956908	 1.128298864	 0.127689
H	 2.3364698711	-1.6892164115	-1.925538507	 0.123858
H	 2.1254264676	-1.5645049487	-0.1070927841	 0.111211
H	-0.003937141	-2.4698577692	-2.1699122367	 0.100941
H	-0.2324069928	-2.107164422	 0.89891471	 0.125531
H	-1.553118755	-2.6240077823	-0.1518346437	 0.11757
H	-0.1670367555	-3.6941359009	 0.1064307194	 0.113514
H	-0.6615077399	 0.5863675228	-2.701392535	 0.098726
H	 1.2526471759	 1.6440150276	-3.9612539084	 0.117201
H	 2.4576718937	 0.7393611622	-2.8998874579	 0.115634
85.5624	104.95	160.989	172.6903	178.862	188.8001	229.395	289.6695	351.6594	386.8589	451.7992	521.1874	591.4461	667.4078	814.9773	877.3615	880.7399	892.1975	920.0647	963.8171	994.1766	1031.2641	1064.2406	1090.0542	1104.5378	1123.5941	1142.1016	1156.1374	1175.8933	1182.3119	1196.1161	1220.5684	1256.1786	1266.2712	1306.4061	1398.9599	1417.1788	1434.3551	1471.3401	1481.7029	1488.9607	1494.4134	1504.2099	1509.8068	1523.7519	2996.4986	3035.3936	3049.8136	3085.9936	3092.3316	3095.322	3118.4242	3124.3652	3132.5907	3150.4475	3176.0907	3225.2328
COC1(CC1C)C1CO1	CO[C@]1(C[C@H]1C)[C@H]1CO1	
InChI=1S/C7H12O2/c1-5-3-7(5,8-2)6-4-9-6/h5-6H,3-4H2,1-2H3	InChI=1S/C7H12O2/c1-5-3-7(5,8-2)6-4-9-6/h5-6H,3-4H2,1-2H3/t5-,6-,7+/m1/s1
