19
gdb 68851	2.41511	1.81425	1.40797	1.35	73.89	-0.2407	0.0728	0.3136	996.5887	0.159095	-423.007899	-422.999871	-422.998927	-423.039824	32.275	
C	-0.0752172146	 1.5139107541	 0.1339191067	-0.490978
C	-0.0319954511	 0.0071410719	 0.0680937922	 0.272089
C	 1.2799535445	-0.6794213848	-0.292111181	-0.377144
C	 0.7470997096	-0.8008577008	 1.1016658683	 0.383744
O	 1.4834353398	-0.2101939712	 2.1256510708	-0.472506
C	-0.0533545659	-2.0320254387	 1.3995181787	-0.071264
O	-1.3284642836	-1.7171977248	 1.9934947427	-0.268538
C	-1.2758136936	-2.0033361016	 0.5890829613	 0.061726
C	-1.307685205	-0.7610102554	-0.2939229225	-0.326251
H	 0.8437738534	 1.9083837256	 0.5765957845	 0.128432
H	-0.1903896919	 1.9573895278	-0.8616951385	 0.117068
H	-0.9174549504	 1.8549894344	 0.7473875192	 0.116191
H	 1.2729526781	-1.5495762287	-0.9424095415	 0.106936
H	 2.1438778549	-0.0336140007	-0.4084401497	 0.123154
H	 0.8632310967	 0.0152069771	 2.8297890457	 0.29007
H	 0.4177590327	-2.9452307242	 1.7555138075	 0.099367
H	-1.7898478213	-2.9122664927	 0.2871452399	 0.095413
H	-2.2050951118	-0.1679482872	-0.0839917206	 0.11088
H	-1.3418700003	-1.0409696102	-1.3541205039	 0.101611
149.2126	200.4711	204.9245	221.5115	351.6167	377.012	397.6805	418.8652	477.6889	509.8189	566.0987	655.6142	721.2256	782.8081	811.2992	874.0276	908.8211	916.7049	954.251	954.6237	974.9708	1014.3212	1028.978	1064.9001	1094.1157	1123.0084	1159.8473	1206.1835	1246.4668	1262.3236	1270.7708	1286.1639	1349.1076	1364.3887	1403.3707	1413.5383	1434.8866	1477.3664	1487.0526	1495.0974	1504.2004	3023.5722	3028.5077	3068.9281	3081.1679	3110.7707	3119.9346	3139.7788	3152.7224	3211.9208	3781.967
CC12CC1(O)C1OC1C2	C[C@@]12C[C@]1(O)[C@H]1O[C@H]1C2	
InChI=1S/C7H10O2/c1-6-2-4-5(9-4)7(6,8)3-6/h4-5,8H,2-3H2,1H3	InChI=1S/C7H10O2/c1-6-2-4-5(9-4)7(6,8)3-6/h4-5,8H,2-3H2,1H3/t4-,5-,6+,7-/m0/s1
