13
gdb 130763	4.36159	1.14164	0.9675	3.2901	61.57	-0.2751	-0.0317	0.2434	1142.3975	0.089976	-489.868284	-489.861233	-489.860289	-489.900496	25.569	
O	-0.0179085285	 0.1732335025	 0.6909415836	-0.351642
C	-0.045897468	 1.2849711039	 0.2860062372	 0.516112
O	-0.9132386351	 1.8268540946	-0.6009464208	-0.226343
N	-0.5829511511	 3.1933487841	-0.8117656479	-0.190845
C	 0.4314067127	 3.3931741296	-0.0501863739	 0.461185
O	 0.8322924904	 2.300238906	 0.6472617412	-0.24325
C	 1.1595717682	 4.6529365499	 0.1000126207	-0.108121
C	 1.7618661957	 4.9921049818	 1.4252581329	-0.233233
N	 2.6206176691	 4.6351996488	 0.2978648144	-0.307512
H	 0.7854825731	 5.4381963488	-0.547662336	 0.13916
H	 1.7952129921	 6.0359665131	 1.7211300055	 0.14442
H	 1.6326790619	 4.280373706	 2.2349988669	 0.144029
H	 2.9483566195	 3.676504641	 0.3963629063	 0.256039
86.9278	136.619	158.552	256.4151	404.0637	424.213	533.4739	649.6369	718.7049	766.2996	778.2431	823.7506	878.5264	892.7149	953.6182	967.8608	982.0036	1011.4028	1106.1414	1131.5413	1145.2809	1176.6985	1264.902	1295.4803	1360.7022	1423.1975	1505.9963	1680.4907	1955.9016	3123.5101	3182.1835	3216.5553	3503.2607
O=C1ON=C(O1)C1CN1	O=c1onc(o1)[C@H]1CN1	
InChI=1S/C4H4N2O3/c7-4-8-3(6-9-4)2-1-5-2/h2,5H,1H2	InChI=1S/C4H4N2O3/c7-4-8-3(6-9-4)2-1-5-2/h2,5H,1H2/t2-/m1/s1
