18
gdb 5524	3.04434	1.82445	1.24667	1.8164	75.68	-0.1686	0.054	0.2225	1005.0923	0.155104	-344.021258	-344.012715	-344.011771	-344.054579	31.609	
C	 0.0454421029	 1.5788434621	 0.1503664641	-0.360543
C	-0.021252318	 0.0484031348	-0.0190404111	-0.309238
C	-1.4087779926	-0.5041256964	-0.0816078718	 0.23961
C	-2.249487306	-0.7326069759	-1.1559012917	 0.179452
N	-1.9793059211	-0.4539539635	-2.5146454697	-0.60921
C	-3.4866209906	-1.2233852166	-0.6454301183	-0.208127
C	-3.372532771	-1.2781186425	 0.7248159909	-0.088603
N	-2.1239903399	-0.8354246673	 1.0585065327	-0.29456
H	 1.0828068062	 1.928811245	 0.1871414331	 0.105174
H	-0.4590390012	 2.0811834369	-0.6801201857	 0.130195
H	-0.4510922659	 1.8913373852	 1.0746571526	 0.112121
H	 0.5167282872	-0.2333925437	-0.9338370401	 0.098357
H	 0.5315124458	-0.4314471314	 0.8004891439	 0.094826
H	-0.98500077	-0.4214301751	-2.7070633671	 0.231103
H	-2.3948632022	-1.1459090314	-3.127001247	 0.236499
H	-4.3562979989	-1.4953828093	-1.2245532021	 0.080941
H	-4.072538904	-1.600248212	 1.4787222907	 0.109957
H	-1.7551499306	-0.791697539	 1.9916505867	 0.252046
40.296	126.9429	170.1793	204.9069	273.1798	291.7448	383.0929	391.1981	433.7712	618.8438	640.9577	675.1741	697.8596	721.2916	779.0186	789.7457	812.65	912.3738	960.7578	1020.1499	1071.4625	1082.4873	1093.966	1142.8266	1234.9789	1249.0954	1310.17	1338.6351	1357.9334	1406.6985	1450.4118	1478.7993	1495.4089	1498.8179	1507.728	1521.3749	1638.1927	1658.1717	3004.6428	3031.9798	3037.4271	3100.6806	3114.1081	3240.2378	3268.2917	3514.9381	3602.0479	3686.9717
CCC1=C(N)C=CN1	CCc1c(N)cc[nH]1	
InChI=1S/C6H10N2/c1-2-6-5(7)3-4-8-6/h3-4,8H,2,7H2,1H3	InChI=1S/C6H10N2/c1-2-6-5(7)3-4-8-6/h3-4,8H,2,7H2,1H3
