23
gdb 76571	2.62419	1.1996	1.13876	1.3293	86.12	-0.2184	0.0845	0.3029	1269.7659	0.205723	-388.291667	-388.282087	-388.281143	-388.326408	36.079	
C	-0.0865828753	 0.9001093476	-2.0192246577	-0.414999
C	-0.0278436117	-0.2097729947	-0.9924040142	-0.10359
C	 1.2515245798	-0.6088554332	-0.2563392188	-0.093824
C	 2.5840606514	 0.0694769927	-0.4872686056	-0.414978
C	 0.1054717546	 0.0517331243	 0.4782973609	 0.438238
C	 0.2079730758	 1.4321507854	 1.1381371853	-0.315321
C	-0.6203997388	 1.2662700425	 2.4323328036	-0.212197
C	-0.6092031923	-0.253569301	 2.6265247676	-0.086016
O	-0.6873263504	-0.7786825664	 1.3102298795	-0.286357
H	 0.55061144	 1.7490517188	-1.7560612882	 0.115151
H	 0.235007419	 0.5429176992	-3.0038732906	 0.116929
H	-1.1091013601	 1.2803356192	-2.1237455466	 0.117815
H	-0.6819020269	-1.0494288092	-1.2150810615	 0.091748
H	 1.3240299312	-1.6756971687	-0.0598779608	 0.087744
H	 2.4832159208	 1.1456413674	-0.6536206076	 0.115638
H	 3.2477923144	-0.0657996716	 0.3745597129	 0.115002
H	 3.0933249183	-0.3483992238	-1.3631098468	 0.116569
H	 1.2483669953	 1.6802150559	 1.3698139164	 0.107117
H	-0.1825544363	 2.2309158975	 0.5025546104	 0.108228
H	-0.2036221854	 1.8130242268	 3.2817894817	 0.098462
H	-1.6475078655	 1.6096659209	 2.2770827756	 0.108929
H	 0.3185456249	-0.5782664054	 3.1267162945	 0.08516
H	-1.4603632627	-0.6389597943	 3.19397942	 0.104553
35.5828	147.5155	155.7418	174.8535	208.8271	212.9875	246.0974	293.0826	423.4709	486.8471	521.4876	531.9785	612.4615	749.0032	786.8197	799.7929	874.1539	901.9899	911.3527	931.8346	994.2922	1009.2503	1026.081	1035.1012	1045.3485	1105.1009	1120.0055	1143.3523	1155.048	1169.9129	1195.1291	1215.192	1225.7908	1265.0791	1292.8141	1327.9834	1346.7904	1362.456	1384.9154	1411.5958	1421.3963	1457.4392	1485.9271	1487.6368	1493.7884	1500.4506	1501.4906	1514.8529	1519.1894	2964.4731	3026.1591	3030.4551	3052.501	3057.6047	3081.5248	3085.8833	3091.8903	3092.1009	3099.2281	3108.5152	3112.8694	3134.2119	3145.2294
CC1C(C)C11CCCO1	C[C@H]1[C@@H](C)[C@]21CCCO2	
InChI=1S/C8H14O/c1-6-7(2)8(6)4-3-5-9-8/h6-7H,3-5H2,1-2H3	InChI=1S/C8H14O/c1-6-7(2)8(6)4-3-5-9-8/h6-7H,3-5H2,1-2H3/t6-,7+,8+
