19
gdb 62057	4.22638	0.66978	0.63101	1.0927	78.47	-0.2651	0.0316	0.2967	1767.0421	0.156375	-422.961587	-422.951639	-422.950695	-422.997424	35.768	
O	-0.2615171933	 1.3611457978	-0.0722326691	-0.414411
C	-0.0096020736	-0.0406790986	 0.0019219904	-0.064963
C	 0.5932463674	-0.5883642627	-1.3062929512	-0.190747
C	-0.2960573242	-0.304420261	-2.5226172332	-0.22637
C	 0.3467785121	-0.7500842442	-3.8124752316	 0.091317
C	 0.2106819447	 0.0081200238	-5.0615409117	-0.180532
O	 1.4187985712	 0.064702249	-4.3007089404	-0.237414
C	 0.8335850665	-0.3757840791	 1.1534701183	 0.294848
C	 1.5618484494	-0.6244719487	 2.0771391799	-0.436085
H	 0.5913081031	 1.8091929036	-0.0341825	 0.287097
H	-1.0016024676	-0.4881688913	 0.1455944759	 0.116567
H	 1.5790046853	-0.1322743204	-1.4582270532	 0.117667
H	 0.7590505146	-1.6661312414	-1.1903783382	 0.107919
H	-1.2608540449	-0.8174300756	-2.4080279023	 0.098907
H	-0.5051315561	 0.7682244211	-2.5712080766	 0.120147
H	 0.5447643553	-1.8213576909	-3.8938523005	 0.088794
H	 0.2843568477	-0.5029601538	-6.0206527012	 0.113524
H	-0.3800277459	 0.9235384023	-5.0684171657	 0.113817
H	 2.1894412783	-0.8487428599	 2.9041889503	 0.199918
54.0159	63.1178	103.3949	133.8046	191.177	229.3589	275.4567	320.5922	370.786	430.044	469.071	565.3808	574.0052	632.3312	672.1137	768.4324	797.2539	869.8218	884.7399	947.093	980.7808	1030.6131	1050.0545	1078.2955	1105.448	1129.8655	1159.8916	1169.8151	1204.3736	1256.2024	1281.2989	1296.8262	1329.7337	1344.2073	1383.3713	1420.5902	1447.9968	1473.3478	1490.9091	1530.316	2232.6068	3020.5917	3027.413	3035.4236	3073.3215	3079.3477	3083.3797	3101.8892	3166.9338	3502.244	3801.5001
OC(CCC1CO1)C#C	O[C@@H](CC[C@H]1CO1)C#C	
InChI=1S/C7H10O2/c1-2-6(8)3-4-7-5-9-7/h1,6-8H,3-5H2	InChI=1S/C7H10O2/c1-2-6(8)3-4-7-5-9-7/h1,6-8H,3-5H2/t6-,7+/m1/s1
