17
gdb 50496	3.91765	1.07103	1.01223	3.1086	74.3	-0.2469	-0.0279	0.219	1202.6427	0.134324	-421.800246	-421.791579	-421.790635	-421.834589	31.465	
O	 0.145652799	 0.122653943	 0.959144332	-0.23633
C	 0.0477136078	 1.1711578362	 0.3801984211	 0.150699
C	 1.2174971262	 1.9422557201	-0.2219114454	 0.030995
C	 1.6449837542	 3.070608078	 0.7430329022	-0.257896
C	 2.6587047708	 2.3293605971	 1.6253245974	-0.247384
C	 3.3405888509	 1.3850163969	 0.6098485368	-0.051986
O	 2.3498108619	 1.1154936173	-0.3972570312	-0.251177
C	 4.5344336604	 1.9753080684	-0.000360831	 0.34866
C	 5.515863322	 2.4676617232	-0.4889192534	-0.477986
H	-0.9342999983	 1.691284212	 0.2712412821	 0.072613
H	 0.9035792301	 2.3338689836	-1.1985404256	 0.100143
H	 2.1289533441	 3.8729565649	 0.1799960665	 0.128881
H	 0.8110913591	 3.4995606008	 1.3046928351	 0.115322
H	 3.369862174	 2.9913659087	 2.1200136945	 0.123837
H	 2.1446916223	 1.7324413945	 2.383295339	 0.1282
H	 3.6058520289	 0.4290172915	 1.0739873753	 0.121601
H	 6.3863171066	 2.8913366837	-0.9258674352	 0.201807
35.974	82.223	143.7615	168.5277	251.4605	283.7846	337.3535	468.8618	527.9223	614.0277	631.7915	666.5762	721.3755	781.7123	796.6319	826.3865	903.8043	924.2913	944.6358	972.4406	990.6448	1049.9768	1101.2319	1120.9666	1172.1627	1201.3903	1270.8019	1292.8193	1316.4391	1344.1784	1356.691	1378.7739	1412.5958	1481.2094	1493.5395	1841.6036	2235.4047	2846.5436	3026.1931	3049.7359	3065.8332	3075.1321	3112.4225	3138.837	3502.5635
O=CC1CCC(O1)C#C	O=C[C@H]1CC[C@@H](O1)C#C	
InChI=1S/C7H8O2/c1-2-6-3-4-7(5-8)9-6/h1,5-7H,3-4H2	InChI=1S/C7H8O2/c1-2-6-3-4-7(5-8)9-6/h1,5-7H,3-4H2/t6-,7+/m0/s1
