20
gdb 75947	2.13969	1.81394	1.03391	3.0899	82.92	-0.2068	0.0031	0.2099	1178.1502	0.171906	-403.207617	-403.198739	-403.197795	-403.240943	33.69	
C	-0.0635193254	 1.4576037264	 0.0162259943	-0.359088
N	-0.0140832639	-0.0017500012	 0.0130626734	-0.172823
C	 0.0235589641	-0.6410444767	-1.2200322932	 0.401241
O	 0.0189080718	-0.0278678864	-2.2710402625	-0.3752
C	 0.0189940261	-2.161015609	-1.165693551	-0.313561
C	 0.8402421008	-2.7160356064	 0.001150043	-0.274814
C	 0.4471574066	-1.9996474722	 1.2617153922	-0.175205
C	 0.0458224841	-0.7229266623	 1.2348449738	 0.371987
C	-0.3678879846	 0.0192559476	 2.4757005311	-0.484988
H	 0.8235392436	 1.8830573479	 0.4974167511	 0.127155
H	-0.0933518409	 1.7778832787	-1.0234744733	 0.172626
H	-0.9540133855	 1.8270281045	 0.5328787626	 0.126307
H	-1.0284353262	-2.4722793925	-1.0516309589	 0.125241
H	 0.3627082682	-2.5174105022	-2.1381139164	 0.125969
H	 0.6765838198	-3.7941892662	 0.0952728372	 0.10778
H	 1.9152770236	-2.5876356823	-0.1988185785	 0.114018
H	 0.4800307833	-2.5201446719	 2.2111649935	 0.085928
H	-0.2967858076	-0.6440264153	 3.3393395908	 0.130933
H	 0.2639706571	 0.892761687	 2.6689689068	 0.132682
H	-1.401150175	 0.3788856425	 2.4062929941	 0.133812
89.3752	135.7292	170.2115	212.6793	237.6133	276.3307	341.7658	389.1177	443.3477	467.0152	548.6873	571.3133	610.7353	660.3098	715.2603	779.478	861.4962	924.6258	939.4492	1027.9281	1044.0688	1069.1096	1085.1648	1138.3787	1152.1492	1159.4285	1191.9689	1233.0757	1260.9015	1338.8553	1345.5641	1371.3788	1391.4011	1420.7839	1446.7219	1464.1163	1478.1806	1486.0488	1491.3272	1511.8527	1514.4249	1730.1227	1774.9988	2988.5536	3025.7728	3030.5309	3039.0718	3069.2773	3083.2005	3095.0744	3120.102	3133.8767	3172.3777	3197.6412
CN1C(=O)CCC=C1C	CN1C(=O)CCC=C1C	
InChI=1S/C7H11NO/c1-6-4-3-5-7(9)8(6)2/h4H,3,5H2,1-2H3	InChI=1S/C7H11NO/c1-6-4-3-5-7(9)8(6)2/h4H,3,5H2,1-2H3
