15
gdb 29352	2.02154	1.89775	0.98002	1.4971	77.98	-0.1738	0.0313	0.2051	1128.9114	0.112202	-416.808986	-416.799989	-416.799045	-416.842093	34.002	
N	 0.0286044276	 1.3964168255	 0.2054881127	-0.621374
C	-0.0136093057	 0.004767229	 0.0625479037	 0.146259
C	-1.1076666408	-0.8193339533	 0.0439053159	-0.170818
N	-0.6410623865	-2.1402180037	-0.0362477899	-0.310472
C	 0.7056453425	-2.1392637146	-0.0681960236	 0.30164
O	 1.3776557079	-3.3035964458	-0.1511267317	-0.43012
C	 1.1644867079	-0.8295975237	-0.0122628219	 0.031264
C	 2.5167820687	-0.4452007329	-0.0368752817	 0.134332
C	 3.6838821374	-0.1332364533	-0.0719539606	-0.440037
H	 0.8823580552	 1.7901751221	-0.1694261619	 0.247173
H	-0.7713575493	 1.8654878167	-0.1976645988	 0.240348
H	-2.161588108	-0.6077066989	 0.0917940734	 0.111377
H	-1.2083099468	-2.9684653821	-0.0635186418	 0.269115
H	 2.3195191715	-3.0903183204	-0.1578003676	 0.311966
H	 4.7074227384	 0.1470289954	-0.0812224461	 0.179346
108.4127	137.5786	198.514	227.7683	270.2475	288.6638	365.1856	400.6885	405.5041	433.8847	504.8833	538.2158	572.6639	590.946	633.6395	687.1511	688.2644	704.7533	751.6621	789.955	1053.5248	1066.9313	1133.1749	1197.8721	1257.1646	1305.7171	1371.1157	1439.9738	1579.643	1609.199	1637.3463	1655.847	2207.4158	3282.3838	3502.3257	3537.3047	3630.5429	3695.6097	3789.2613
NC1=CNC(O)=C1C#C	Nc1c[nH]c(O)c1C#C	
InChI=1S/C6H6N2O/c1-2-4-5(7)3-8-6(4)9/h1,3,8-9H,7H2	InChI=1S/C6H6N2O/c1-2-4-5(7)3-8-6(4)9/h1,3,8-9H,7H2
