18
gdb 54865	3.41096	1.35734	1.04656	2.9456	80.84	-0.2073	-0.0042	0.2031	1148.7308	0.148295	-401.977999	-401.969973	-401.969029	-402.010703	30.878	
C	-0.0017118974	 1.4928127119	 0.0284942646	-0.504233
C	 0.0414125858	-0.0250696825	-0.0097425684	 0.397383
O	 1.0817927403	-0.6551481269	 0.0359348482	-0.3603
N	-1.1738815638	-0.6679777748	-0.1042917538	-0.081708
C	-2.4675158611	-0.1224242201	-0.0592012604	-0.024622
C	-3.4037339191	-1.0724241209	 0.0777508605	-0.167058
C	-2.7639561814	-2.4161693164	 0.0838138582	-0.108995
C	-2.0001248487	-2.7930924183	-1.1785757181	-0.299414
C	-1.274965091	-2.1108929161	-0.0539903957	 0.014619
H	 1.0237382159	 1.8531411722	 0.1007459613	 0.150081
H	-0.4633143893	 1.9022977828	-0.8758332696	 0.140362
H	-0.5730813746	 1.8554454756	 0.8889624147	 0.141266
H	-2.5998714885	 0.9441702596	-0.1570224896	 0.129936
H	-4.4658577707	-0.8926792448	 0.1559643998	 0.107513
H	-3.1420334161	-3.2045333502	 0.7249691631	 0.097394
H	-1.7694525926	-3.8431515808	-1.318905922	 0.121002
H	-2.2068502125	-2.2387846141	-2.0872724372	 0.11873
H	-0.4762083252	-2.6047539861	 0.4807151544	 0.128043
95.3549	112.9655	154.4849	215.9979	341.0107	352.3557	428.2122	533.4345	577.3255	613.3371	624.1715	728.2156	747.1246	766.4427	815.6924	871.4898	896.2771	925.2648	971.1711	1007.4814	1045.6653	1051.4575	1055.7624	1070.3781	1088.7288	1105.436	1146.2594	1199.2183	1283.3002	1302.8477	1354.3687	1368.2312	1394.0555	1437.474	1471.252	1475.8985	1485.843	1647.8655	1767.6959	3044.3966	3107.3746	3134.4472	3163.5701	3168.9812	3218.7204	3229.4166	3236.0114	3261.6751
CC(=O)N1C=CC2CC12	CC(=O)N1C=C[C@H]2C[C@@H]12	
InChI=1S/C7H9NO/c1-5(9)8-3-2-6-4-7(6)8/h2-3,6-7H,4H2,1H3	InChI=1S/C7H9NO/c1-5(9)8-3-2-6-4-7(6)8/h2-3,6-7H,4H2,1H3/t6-,7+/m0/s1
