15
gdb 20731	3.39804	1.98664	1.27067	1.8986	64.33	-0.1965	0.0394	0.2359	918.4504	0.119276	-395.995501	-395.986981	-395.986037	-396.028366	30.215	
C	-0.0619851072	 1.4839310004	-0.0441873885	-0.503628
C	-0.0077837501	-0.0075807181	 0.0308849032	 0.266453
N	-0.0418228197	-0.7605834268	-1.0664853803	-0.298017
N	 0.0176052032	-2.0380578533	-0.6117970177	-0.253062
C	 0.0900274916	-2.1221371109	 0.7408357445	 0.311514
N	 0.2155502634	-3.3336107969	 1.4293954314	-0.614299
C	 0.0766087291	-0.8160939093	 1.1906969336	 0.087622
O	 0.0613605728	-0.4564396098	 2.5188672121	-0.456858
H	 0.866734507	 1.9463774287	 0.3135734095	 0.115953
H	-0.2149220556	 1.7953119103	-1.0795545181	 0.143324
H	-0.8787637022	 1.8853793853	 0.5660574233	 0.129584
H	 0.0536778169	-2.7960072054	-1.2706379958	 0.267773
H	-0.5934627591	-3.9366369335	 1.3166543604	 0.248808
H	 0.331571476	-3.1444145501	 2.4188963547	 0.257102
H	 0.7519682038	 0.1961228094	 2.6730003575	 0.29773
92.89	107.9114	164.803	235.01	242.1481	261.2157	315.7072	341.9605	424.6901	530.4187	582.1666	669.5512	702.8738	735.3256	791.9699	835.8178	994.5059	1056.8256	1063.9614	1124.9723	1167.6485	1231.3674	1299.069	1358.8981	1406.0724	1434.459	1482.4469	1488.6486	1522.9505	1560.2951	1642.559	1678.9397	3022.1176	3072.6936	3131.0219	3501.5383	3590.4795	3682.6999	3807.6135	92.8919	107.9127	164.803	235.01	242.1483	261.2156	315.7073	341.9604	424.69	530.4187	582.1666	669.5511	702.8738	735.3257	791.9699	835.8176	994.5059	1056.8257	1063.9613	1124.9724	1167.6486	1231.3674	1299.069	1358.8983	1406.0723	1434.4591	1482.4466	1488.6484	1522.9506	1560.2951	1642.5593	1678.9399	3022.1176	3072.6936	3131.0219	3501.5382	3590.4794	3682.6999	3807.6138
CC1=NNC(N)=C1O	Cc1n[nH]c(N)c1O	
InChI=1S/C4H7N3O/c1-2-3(8)4(5)7-6-2/h8H,1H3,(H3,5,6,7)	InChI=1S/C4H7N3O/c1-2-3(8)4(5)7-6-2/h8H,1H3,(H3,5,6,7)
