13
gdb 133368	3.13861	1.47625	1.00497	2.5871	67.28	-0.2043	-0.0644	0.1399	1066.3969	0.090933	-490.224079	-490.216666	-490.215722	-490.255979	28.325	
N	 0.017697475	 1.3691495916	 0.0799544527	-0.554841
C	-0.0276410663	-0.0035763933	-0.0386718544	 0.446228
N	-1.1731553908	-0.6125066041	-0.0744449196	-0.272387
N	-1.1164652742	-1.9552118351	-0.2906564559	-0.266963
C	 0.0133549714	-2.7244962284	-0.450005417	 0.269308
N	-0.0446112092	-3.9892164198	-0.6492510188	-0.565661
C	 1.2056022565	-1.8693955985	-0.3446378344	 0.287837
F	 2.3558363928	-2.5069415685	-0.4537031136	-0.045394
N	 1.2156352847	-0.6131131003	-0.1586272172	-0.334997
H	 0.8616564622	 1.7212386844	 0.5048710535	 0.265326
H	-0.8340727292	 1.7901201981	 0.4187974335	 0.264298
H	-2.0104153274	-2.4213230989	-0.325715358	 0.279357
H	 0.8932821845	-4.3719618273	-0.7380364909	 0.227888
89.1874	221.3694	286.8729	320.9192	334.083	403.1355	424.9189	505.8669	548.2098	575.4053	592.3453	605.9681	720.0661	724.9471	743.4595	806.0063	839.4977	998.4177	1073.4846	1139.9987	1271.2997	1300.6182	1392.3915	1430.6592	1470.5888	1600.5108	1646.0274	1679.399	1726.0129	3530.5675	3582.7452	3631.7998	3698.2678
NC1=NNC(=N)C(F)=N1	NC1=NN[C@H]([NH])C(=N1)F	
InChI=1S/C3H4FN5/c4-1-2(5)8-9-3(6)7-1/h(H2,5,8)(H2,6,7,9)	InChI=1S/C3H5FN5/c4-1-2(5)8-9-3(6)7-1/h2,5,8H,(H2,6,9)/t2-/m0/s1
