19
gdb 109387	3.18445	1.13921	0.927	2.9805	80.06	-0.2293	-0.0234	0.206	1279.6801	0.159833	-423.011439	-423.002749	-423.001805	-423.044859	32.575	
O	 0.0538925491	 1.4337904232	 0.291716872	-0.412707
C	 0.0344070519	 0.0402197291	 0.0559201436	-0.163956
C	-1.3849841165	-0.4578040745	-0.0516444624	 0.265669
C	-2.4447816735	 0.368180956	-0.0847579758	-0.181027
C	-3.8659243287	-0.1415182484	-0.0254773869	-0.110726
O	-4.3446348217	-0.8135097109	-1.1888339659	-0.254091
C	-3.3908210025	-1.6705743445	-1.8038016311	-0.109459
C	-2.5252916825	-2.4781774179	-0.8625146801	-0.101908
C	-1.5681684642	-1.9098467334	-0.1132008099	-0.127221
H	 0.9612698151	 1.739159607	 0.2092435697	 0.291884
H	 0.5791833239	-0.2162264167	-0.8686055269	 0.103615
H	 0.5348584448	-0.5135570166	 0.8707763497	 0.095427
H	-2.2756209515	 1.438738042	-0.0684299317	 0.114529
H	-3.9521834624	-0.8223663766	 0.8366533392	 0.096606
H	-4.5609990351	 0.687338935	 0.1325329137	 0.106519
H	-3.9701427039	-2.3305079679	-2.4553932328	 0.104842
H	-2.7239745312	-1.0668736657	-2.4407758667	 0.097449
H	-2.652188839	-3.556948158	-0.849177352	 0.097073
H	-0.8894827821	-2.5333665911	 0.4676529945	 0.087482
79.6322	141.4717	176.0355	211.7667	224.6591	273.1958	347.0692	382.4695	404.4723	488.0504	572.8137	659.4609	706.7602	774.5084	833.3232	863.5159	921.8722	950.9526	993.3721	1031.5173	1037.722	1042.128	1085.8053	1088.7192	1125.8778	1182.4669	1224.0034	1229.7644	1261.5112	1281.7301	1308.7998	1340.2517	1391.6212	1406.0451	1433.3633	1460.9999	1495.171	1501.6402	1507.5087	1653.4018	1700.289	2941.3319	2964.3505	2965.8999	2972.1527	3084.3181	3088.0953	3130.0746	3171.901	3200.7525	3843.9937
OCC1=CCOCC=C1	OCC1=CCOCC=C1	
InChI=1S/C7H10O2/c8-6-7-2-1-4-9-5-3-7/h1-3,8H,4-6H2	InChI=1S/C7H10O2/c8-6-7-2-1-4-9-5-3-7/h1-3,8H,4-6H2
