21
gdb 93059	2.30723	1.55033	1.08934	1.2898	87.52	-0.2226	-0.0308	0.1918	1183.018	0.183714	-387.104595	-387.095677	-387.094733	-387.138055	34.579	
C	-0.0065660706	 1.5863368798	-0.0356839026	-0.40002
C	-0.0118585396	 0.0508960551	-0.0219715309	 0.004394
C	 0.6784342464	-0.5087108612	-1.282185082	-0.265847
C	 0.3057552126	-1.9205908532	-1.6289839394	-0.074338
C	 0.1709750607	-2.9435618648	-0.7719696774	-0.073682
C	 0.3982013893	-2.9539704558	 0.6690115242	-0.06547
C	 0.5942174486	-1.9417422967	 1.5309643681	-0.129816
C	 0.6253857079	-0.4594676895	 1.2838601762	 0.089878
O	 1.9697692277	 0.0241082486	 1.4424196074	-0.438919
H	 1.0184279324	 1.9664844418	-0.0115533458	 0.131408
H	-0.5000668609	 1.9709550934	-0.9335860794	 0.104811
H	-0.5317274714	 1.9918664081	 0.8355061922	 0.108703
H	-1.053667385	-0.2960140757	-0.0222996285	 0.079261
H	 0.4428255688	 0.1367904266	-2.134918218	 0.099847
H	 1.7695778378	-0.4212279742	-1.1517069834	 0.10297
H	 0.1319741077	-2.1249318542	-2.6829368545	 0.09116
H	-0.0976607197	-3.9108713412	-1.1902970669	 0.085542
H	 0.4215830896	-3.9535792169	 1.1003028684	 0.08903
H	 0.7927377505	-2.2057816629	 2.5678406307	 0.096096
H	 0.0748380559	 0.0173516902	 2.1066923004	 0.084886
H	 2.5525618513	-0.6220152674	 1.0305422013	 0.280106
57.7122	141.4191	217.9215	236.4177	265.1028	293.0757	323.4502	368.6332	379.2811	441.3177	546.8151	596.1563	654.8423	716.2412	780.337	841.5893	868.2192	896.5214	899.2037	929.3329	983.5476	1001.5602	1020.1813	1031.01	1071.7937	1081.0627	1104.9502	1153.7984	1207.1985	1252.0826	1268.6647	1278.5912	1321.1879	1349.9302	1365.7909	1399.8412	1406.9046	1412.8654	1425.4739	1462.4863	1477.1885	1495.084	1506.3554	1672.7507	1709.2549	2978.1413	3007.8103	3024.7331	3036.268	3060.5842	3100.3175	3119.7321	3126.0815	3141.0325	3152.8048	3165.5489	3814.9618
CC1CC=CC=CC1O	C[C@H]1CC=CC=C[C@H]1O	
InChI=1S/C8H12O/c1-7-5-3-2-4-6-8(7)9/h2-4,6-9H,5H2,1H3	InChI=1S/C8H12O/c1-7-5-3-2-4-6-8(7)9/h2-4,6-9H,5H2,1H3/t7-,8+/m0/s1
