20
gdb 53699	5.76974	0.51678	0.48921	2.3244	86.62	-0.2445	0.0374	0.2819	2260.5208	0.168645	-403.078049	-403.067444	-403.0665	-403.116542	35.684	
C	-0.0810867292	 1.3855921472	 0.2874842432	-0.498986
C	-0.0718589168	-0.0563870723	 0.0924280396	 0.139092
C	-0.0740252622	-1.2488558686	-0.0669720445	 0.002365
C	-0.0490670864	-2.6907495744	-0.2641639966	-0.205832
O	-1.3519695544	-3.2285396268	-0.1178312641	-0.243413
C	-1.3797168379	-4.6291944481	-0.3051173738	-0.066739
C	-2.8020984441	-5.1045250956	-0.2020909925	 0.017128
C	-3.0793477709	-6.4516765154	 0.356362196	-0.247515
N	-3.4448725298	-5.2436082608	 1.1113286566	-0.302723
H	 0.6229807013	 1.6873173751	 1.0706583605	 0.148513
H	 0.1931228968	 1.9158579541	-0.6310409865	 0.148581
H	-1.0765558252	 1.7321448561	 0.5858134711	 0.15497
H	 0.3495344659	-2.9277459407	-1.266477355	 0.11242
H	 0.6394833687	-3.1578436569	 0.462263762	 0.110529
H	-0.9613516971	-4.8930504326	-1.2925691893	 0.091466
H	-0.7567578607	-5.1344170561	 0.4557789937	 0.076533
H	-3.4631615078	-4.7072549114	-0.9689804113	 0.101082
H	-3.9178095341	-7.0321321784	-0.0172533632	 0.121164
H	-2.2340897595	-7.0477643162	 0.6930591472	 0.109069
H	-2.7638899266	-5.0671933081	 1.8466410868	 0.232297
21.3888	39.7537	65.5906	83.717	125.844	177.3464	209.9027	300.3381	312.4164	376.8425	405.7345	450.7582	554.9156	778.8892	822.1467	836.5546	935.5619	942.989	1003.4288	1017.3341	1035.0054	1051.1951	1058.6782	1076.274	1118.8577	1138.1922	1152.975	1180.9292	1213.5637	1249.1173	1255.7094	1276.4292	1311.0076	1361.0912	1409.8898	1415.2745	1460.7011	1476.6275	1478.7499	1495.8616	1513.639	1516.6105	2381.1562	2931.563	2944.7806	2956.981	2965.5123	3028.7957	3089.5699	3091.7373	3105.9119	3138.453	3190.7349	3493.5814
CC#CCOCC1CN1	CC#CCOC[C@H]1CN1	
InChI=1S/C7H11NO/c1-2-3-4-9-6-7-5-8-7/h7-8H,4-6H2,1H3	InChI=1S/C7H11NO/c1-2-3-4-9-6-7-5-8-7/h7-8H,4-6H2,1H3/t7-/m1/s1
