19
gdb 61429	2.80821	1.09256	0.94612	3.4303	72.94	-0.2266	-0.0107	0.216	1322.7574	0.156785	-456.400859	-456.390176	-456.389232	-456.437956	37.034	
C	-0.22226057	 1.4091265254	-0.0559349776	-0.342491
N	 0.0775965599	-0.0137877073	-0.1100044115	-0.089093
C	-0.0391560067	-0.7943079136	 1.0997487521	-0.293747
C	-1.4869361793	-1.0190378182	 1.5544213981	 0.394335
C	-1.6734352962	-2.006169343	 2.6895959418	-0.479418
O	-2.4096493225	-0.4400015269	 1.0320217833	-0.293753
C	 0.0373803216	-0.7266119225	-1.2953611696	 0.472252
N	-0.0584419375	 0.0346937894	-2.4456678219	-0.567863
O	 0.0640236509	-1.9469589729	-1.3313872554	-0.422325
H	 0.5258542826	 1.995921324	-0.6050265301	 0.114254
H	-1.220472658	 1.6387157574	-0.4422453557	 0.153716
H	-0.1803676109	 1.7385686952	 0.9836933535	 0.131592
H	 0.4311890617	-1.7654813005	 0.9281456306	 0.160847
H	 0.505496311	-0.3035994485	 1.9180743564	 0.117164
H	-0.9630226545	-1.8181015525	 3.501895631	 0.132158
H	-2.6959223986	-1.9552053336	 3.0653195379	 0.144671
H	-1.4752651342	-3.0191161587	 2.3197383563	 0.157217
H	 0.2702009064	 0.9858287138	-2.4535695553	 0.24965
H	 0.1344629943	-0.4962502969	-3.2798733738	 0.260834
34.3317	53.2933	85.7567	110.3396	142.5836	152.0773	291.4642	305.024	360.9628	386.2718	405.3083	455.5512	512.1726	521.4862	597.3886	625.9051	773.1142	805.9151	808.6623	846.5147	969.0186	1040.3057	1078.7476	1098.7414	1141.4742	1182.177	1193.8073	1288.9138	1335.9311	1379.066	1387.3917	1419.8346	1426.2473	1464.0155	1475.7082	1483.9259	1492.7128	1515.3858	1624.1683	1777.0769	1820.8019	3009.4707	3020.8815	3037.3985	3079.0044	3097.5801	3111.9799	3128.9532	3152.8231	3597.4741	3715.4004
CN(CC(C)=O)C(N)=O	CN(CC(=O)C)C(=O)N	
InChI=1S/C5H10N2O2/c1-4(8)3-7(2)5(6)9/h3H2,1-2H3,(H2,6,9)	InChI=1S/C5H10N2O2/c1-4(8)3-7(2)5(6)9/h3H2,1-2H3,(H2,6,9)
