15
gdb 81210	3.54533	1.37634	1.26495	3.0097	65.95	-0.2681	-0.0137	0.2544	994.4932	0.112007	-457.651191	-457.644203	-457.643259	-457.682417	27.884	
O	 0.0307395638	 1.4671960303	 0.1023232765	-0.439442
C	 0.0684157751	 0.0712203613	 0.1160206378	 0.114632
C	-0.029063771	-0.5755366148	 1.5005812468	-0.116983
C	-1.5868583982	-0.1581251815	 1.5273543702	-0.314509
C	-1.2521612	-0.7603493343	 0.127432842	 0.332477
O	-1.5839008397	-1.5323266153	-1.071032311	-0.313345
C	-0.5749355734	-2.4544394955	-0.6859642694	 0.372319
O	-0.1566991278	-3.3478110518	-1.3374519935	-0.293853
C	-0.5272161444	-1.8963396543	 0.7776764804	-0.212689
H	-0.0818227981	 1.7606460632	-0.8075346172	 0.295934
H	 0.8516418051	-0.3359050187	-0.5367365215	 0.089201
H	 0.6678166661	-0.4768246725	 2.3318380486	 0.107463
H	-2.2296732819	-0.7546257869	 2.1745901679	 0.119262
H	-1.7841976728	 0.9103164069	 1.5891101239	 0.136923
H	-1.1381372329	-2.5452938661	 1.4085362585	 0.122609
130.292	247.4911	277.4187	311.3707	343.811	452.578	479.5698	546.522	612.091	652.3212	723.6373	742.3181	827.1652	846.4177	879.283	924.376	950.7617	991.736	1026.0553	1038.4073	1063.0018	1114.1917	1148.4342	1167.0892	1175.1701	1187.4077	1225.545	1230.5784	1300.4346	1324.3304	1439.2357	1500.685	1939.6696	3026.6513	3091.2389	3096.6003	3129.5238	3181.2347	3820.9571
OC1C2CC11OC(=O)C21	O[C@H]1[C@H]2C[C@]31OC(=O)[C@@H]23	
InChI=1S/C6H6O3/c7-4-2-1-6(4)3(2)5(8)9-6/h2-4,7H,1H2	InChI=1S/C6H6O3/c7-4-2-1-6(4)3(2)5(8)9-6/h2-4,7H,1H2/t2-,3+,4-,6-/m0/s1
