12
gdb 42638	2.80688	1.79789	1.31396	5.7755	63.56	-0.2594	-0.0419	0.2175	909.3645	0.076762	-435.429783	-435.423063	-435.422119	-435.461079	25.43	
O	-0.0441569194	 0.0457713383	 0.009255195	-0.299442
C	-0.0573434369	 1.2335294933	 0.0752067957	 0.460183
C	-1.0967072128	 2.3067284652	 0.0529845489	-0.262113
C	-0.3785113513	 3.5344485985	 0.6231205808	 0.103405
O	 0.8968888263	 3.1265008658	 1.1316001717	-0.30882
C	 1.0435773199	 2.3509396121	-0.0913481542	 0.194292
C	 2.3823669492	 2.1103231677	-0.5450173264	 0.176832
N	 3.444684038	 1.8894768108	-0.9421778446	-0.320207
C	-0.1034126304	 3.1852144383	-0.7831003289	-0.184015
H	-2.1684913453	 2.2236458307	-0.0514245399	 0.138474
H	-0.8915477137	 4.3639170658	 1.0894786444	 0.146877
H	-0.2209209437	 3.6329558434	-1.7576997323	 0.154534
126.9931	155.0795	196.9281	371.0484	478.9591	490.4911	530.7103	626.9756	663.1375	739.1338	765.5506	801.5667	837.4376	873.8286	893.9764	936.4986	961.2795	995.7888	1034.3739	1052.3214	1094.4758	1170.817	1250.9096	1303.3046	1353.643	1912.3358	2364.2453	3223.8547	3238.9218	3249.8996
O=C1C2C3OC1(C#N)C23	O=C1[C@H]2[C@H]3O[C@]1(C#N)[C@@H]23	
InChI=1S/C6H3NO2/c7-1-6-3-2(5(6)8)4(3)9-6/h2-4H	InChI=1S/C6H3NO2/c7-1-6-3-2(5(6)8)4(3)9-6/h2-4H/t2-,3+,4-,6-/m1/s1
