17
gdb 23157	2.11016	1.34681	0.86633	1.0307	80.29	-0.2293	-0.0008	0.2285	1314.8441	0.132851	-417.893007	-417.883647	-417.882703	-417.927219	34.262	
C	-0.0678048583	 1.482357699	 0.1275333696	-0.330029
N	-0.0219447862	 0.036956504	 0.0985262094	-0.070691
C	-1.2631169261	-0.7173159123	 0.4022742911	-0.267755
C	-0.4297408737	-1.6260777085	 1.2732646179	 0.409021
N	-0.5315734763	-2.7466717156	 1.8415304005	-0.234557
O	-1.8069680222	-3.2991255385	 1.6421517008	-0.387497
C	 0.7356623385	-0.6477000913	 1.1900237753	-0.267459
C	 2.0687611732	-1.1189640852	 0.8579148638	 0.356042
C	 3.1772571973	-1.5006855578	 0.5958434966	-0.427095
H	 0.9394886632	 1.88263006	-0.0235176529	 0.13412
H	-0.6994847883	 1.8460678869	-0.6890152765	 0.127877
H	-0.4642157148	 1.8896456522	 1.0773341324	 0.094234
H	-2.0124330507	-0.1519198792	 0.9810078865	 0.111567
H	-1.7541295084	-1.1681356822	-0.4659476564	 0.136227
H	-1.7355662751	-4.1455269017	 2.0968698778	 0.311189
H	 0.7798170732	-0.0369912823	 2.1103644498	 0.105395
H	 4.1520233147	-1.8477204573	 0.3566282042	 0.199411
85.4586	98.8537	150.6124	179.5688	235.1358	279.7877	321.412	330.5125	372.4774	418.574	488.0582	530.5373	567.4587	625.6871	662.9371	724.4692	822.407	864.2055	964.35	983.7035	1010.2801	1060.8181	1114.1151	1148.7321	1161.161	1192.3192	1207.1242	1273.7088	1304.1538	1349.4384	1410.6633	1451.2821	1484.1854	1496.8919	1499.356	1814.1269	2241.7365	2925.3869	2930.8017	2970.4913	3065.6139	3069.8471	3108.6176	3503.4112	3814.4828
CN1CC(=NO)C1C#C	CN1CC(=NO)[C@H]1C#C	
InChI=1S/C6H8N2O/c1-3-6-5(7-9)4-8(6)2/h1,6,9H,4H2,2H3	InChI=1S/C6H8N2O/c1-3-6-5(7-9)4-8(6)2/h1,6,9H,4H2,2H3/t6-/m1/s1
