17
gdb 107964	2.87941	1.3614	1.30852	1.6623	68.05	-0.2421	0.0482	0.2903	1056.2069	0.133157	-458.848409	-458.840089	-458.839145	-458.881349	31.435	
C	 0.0975489716	 1.4712188075	-0.0519934195	-0.537493
C	 0.0183052008	-0.0179756006	-0.0403260111	 0.363313
O	 0.6300261001	-0.798452932	-1.1133048833	-0.353783
C	 0.0738511235	-1.8343139872	-0.2563842421	-0.000174
C	 0.3632224964	-1.0752727182	 1.0670850039	-0.006043
O	-1.0018847319	-1.1699550334	 1.565930692	-0.369049
C	-1.1965035883	-1.0080099357	 0.1219628507	 0.362008
C	-2.5998682523	-1.0383082599	-0.3927282573	-0.217129
O	-3.2301544	-2.2679214311	-0.0822667355	-0.41064
H	 1.1408087627	 1.8002424199	-0.0321385587	 0.141439
H	-0.3765980552	 1.8789074208	-0.9497742361	 0.139902
H	-0.4131626664	 1.8716968935	 0.8289344144	 0.142576
H	 0.195366854	-2.8797327271	-0.5340755502	 0.111283
H	 1.1901429411	-1.1384014809	 1.7738800568	 0.104747
H	-3.1561402328	-0.1794668847	 0.0158453785	 0.102016
H	-2.5871589812	-0.9438356959	-1.4833843288	 0.130233
H	-3.0999322121	-2.4150844148	 0.8618527163	 0.296794
86.0706	121.5367	200.5845	230.4864	239.8463	273.9668	371.2668	425.8343	531.1953	578.4474	678.8502	714.4096	751.4234	784.3193	786.9921	833.3014	846.1945	936.7352	951.8799	966.5703	1056.2676	1064.7809	1084.7188	1108.4344	1141.1364	1164.5643	1198.9782	1244.7507	1273.4874	1323.8676	1364.656	1384.3055	1417.1234	1444.8144	1474.7104	1488.8657	1489.8898	2980.3811	3041.6271	3082.9589	3115.3272	3120.1061	3126.8688	3147.5558	3799.2699
CC12OC3C1OC23CO	C[C@@]12O[C@H]3[C@@H]1O[C@@]23CO	
InChI=1S/C6H8O3/c1-5-3-4(8-5)6(5,2-7)9-3/h3-4,7H,2H2,1H3	InChI=1S/C6H8O3/c1-5-3-4(8-5)6(5,2-7)9-3/h3-4,7H,2H2,1H3/t3-,4-,5+,6+/m0/s1
