20
gdb 47724	2.42837	1.69355	1.14459	2.533	79.4	-0.2128	-0.0135	0.1993	1111.164	0.172922	-403.163153	-403.15506	-403.154116	-403.195833	32.015	
O	 0.0122965335	 0.0151234795	 0.4060390723	-0.32928
C	-0.002471558	 1.1873339889	 0.0944281012	 0.332131
C	-1.3178525612	 1.938993437	-0.0996974871	-0.30225
C	-1.2321433847	 3.1493357696	-1.0413419416	-0.211023
C	 0.0184236122	 3.9797017946	-0.7254870616	-0.171396
N	 1.2520675886	 3.1985216484	-0.8352778249	-0.354765
C	 1.2561059505	 2.0088972089	-0.0108790023	 0.230019
C	 2.0697248021	 2.0782827331	 1.286299876	-0.269791
C	 2.569734708	 1.2838376528	 0.1209473664	-0.309385
H	-2.0815521713	 1.216661606	-0.4001060023	 0.122782
H	-1.5994314669	 2.2876953044	 0.9053076524	 0.129793
H	-1.1771622718	 2.8091511108	-2.0840735844	 0.098319
H	-2.1398271603	 3.7587226879	-0.9575395015	 0.099398
H	 0.0951099747	 4.8405523072	-1.3974723052	 0.101816
H	-0.0427319389	 4.3753155389	 0.2971677234	 0.1065
H	 1.385861275	 2.9277081744	-1.806007007	 0.217332
H	 2.5328364383	 3.0370848807	 1.48779594	 0.123253
H	 1.6871298406	 1.5401346457	 2.1458787208	 0.127558
H	 2.5105270005	 0.2038944529	 0.1802023943	 0.140626
H	 3.395707379	 1.6913326481	-0.4501971989	 0.118364
66.793	134.6777	231.5486	278.4179	291.676	383.1499	411.9135	443.0421	507.792	565.4001	633.2653	669.5024	766.9933	789.0306	841.2468	848.6001	880.3739	900.2368	937.195	978.3575	1003.3561	1018.0686	1056.4862	1086.184	1101.1561	1121.2814	1144.6232	1195.844	1208.7576	1217.4688	1291.8218	1315.0674	1329.4154	1344.5316	1372.9224	1383.2463	1439.6393	1452.8099	1469.8797	1479.8651	1489.6298	1494.3303	1788.5737	3008.5145	3016.8923	3022.1608	3061.5424	3078.0649	3096.025	3140.485	3146.1108	3233.4447	3247.6169	3488.7369
O=C1CCCNC11CC1	O=C1CCCNC21CC2	
InChI=1S/C7H11NO/c9-6-2-1-5-8-7(6)3-4-7/h8H,1-5H2	InChI=1S/C7H11NO/c9-6-2-1-5-8-7(6)3-4-7/h8H,1-5H2
