13
gdb 17086	5.64945	1.53347	1.45724	4.2024	65.61	-0.2612	-0.063	0.1982	844.9111	0.097237	-361.427474	-361.421526	-361.420582	-361.457632	22.96	
N	 0.0682927824	-1.1032321061	-0.0524257595	-0.341855
C	-0.0024462384	 0.053603614	-0.019249996	 0.173714
C	-0.0377716351	 1.4603203645	 0.0163857369	 0.274248
C	-1.0601150958	 2.3292863182	 0.0222128189	-0.191939
C	-0.3127728563	 3.6732831688	 0.0454845156	 0.026142
C	 0.7647686598	 3.4506923147	-1.0621179121	-0.220357
C	 1.1774419223	 2.4323062534	 0.0406151222	-0.041224
O	 0.7368784586	 3.4046047054	 1.0313126835	-0.270842
H	-2.125165129	 2.1552455512	 0.0018891341	 0.143942
H	-0.8622466302	 4.5996868172	 0.1973437836	 0.100596
H	 0.4537906682	 3.0780891842	-2.0395109228	 0.115076
H	 1.461125193	 4.2879780057	-1.1368318372	 0.124577
H	 2.1788948707	 2.0336298488	 0.1858223626	 0.107922
138.1807	168.8948	437.2802	477.4209	498.5253	567.5222	610.6546	659.6035	789.6635	816.6111	850.5288	867.8471	896.7561	919.7882	937.7602	1022.5341	1050.58	1092.5994	1158.1634	1176.0268	1215.8292	1233.3869	1255.0054	1278.1176	1298.9046	1487.1957	1645.461	2333.1643	3075.563	3150.0662	3154.876	3159.3161	3258.1417
N#CC1=CC2CC1O2	N#CC1=C[C@@H]2C[C@H]1O2	
InChI=1S/C6H5NO/c7-3-4-1-5-2-6(4)8-5/h1,5-6H,2H2	InChI=1S/C6H5NO/c7-3-4-1-5-2-6(4)8-5/h1,5-6H,2H2/t5-,6-/m1/s1
