16
gdb 50302	3.32158	1.49478	1.13117	5.7319	71.02	-0.2547	-0.024	0.2307	1043.5572	0.126453	-434.076361	-434.068951	-434.068007	-434.108495	27.895	
N	-0.1481857552	 1.2298817706	-0.4045364093	-0.526721
C	-0.0418894628	 0.0128560021	-0.1055821541	 0.401706
N	-1.1612411932	-0.7913501093	 0.2721791047	-0.12281
C	-1.4278098519	-1.8650819853	-0.7174233759	-0.247053
C	-0.6585387426	-2.1567964287	 0.5120531843	-0.033176
C	 0.8587752212	-2.1478071161	 0.4376673367	-0.208269
N	 1.134183923	-0.8043704892	-0.0735902688	-0.120355
C	 2.3912141446	-0.3913022652	-0.4342675693	 0.158609
O	 2.6845915076	 0.7186092945	-0.8203047604	-0.309366
H	 0.7659950297	 1.6142233573	-0.6427975095	 0.256121
H	-2.4701247479	-2.1569505454	-0.7870507603	 0.139454
H	-0.8954601346	-1.8176782344	-1.6641065394	 0.134999
H	-1.1187740433	-2.6984179586	 1.3311710402	 0.117034
H	 1.2910519805	-2.2877240974	 1.4352317205	 0.134024
H	 1.2657411559	-2.9191902335	-0.2246888311	 0.13357
H	 3.1351762289	-1.2051062914	-0.3354197782	 0.092234
76.5121	176.0018	244.012	252.6423	270.755	366.901	464.92	500.9817	671.4626	718.0907	734.0438	771.829	826.4189	862.6166	937.4077	939.2711	963.6399	1024.7261	1032.6378	1090.0233	1112.6778	1115.4523	1164.1839	1201.5021	1219.0364	1253.3648	1302.5981	1333.0368	1391.9215	1403.1472	1446.2098	1504.1739	1524.0431	1740.2956	1815.3859	2947.3239	3031.3338	3071.5754	3117.826	3172.4574	3213.1394	3500.7891
N=C1N2CC2CN1C=O	[NH][C]1N2C[C@H]2CN1C=O	
InChI=1S/C5H7N3O/c6-5-7(3-9)1-4-2-8(4)5/h3-4,6H,1-2H2	InChI=1S/C5H7N3O/c6-5-7(3-9)1-4-2-8(4)5/h3-4,6H,1-2H2/t4-,8?/m1/s1
