18
gdb 69746	2.99525	1.50567	1.28572	3.7318	75.53	-0.2324	0.0268	0.2592	1037.399	0.148289	-401.932714	-401.925043	-401.924098	-401.964586	30.501	
C	-0.0084055717	 1.5523962668	 0.0550790258	-0.498759
C	 0.035080926	 0.0522168831	 0.0148339182	 0.36493
C	-0.8829541683	-0.8288257325	 0.8096963805	-0.357755
C	 0.6011544911	-0.962278192	 1.0220097116	-0.114117
C	 1.2780128603	-1.7447756575	-0.1350173754	 0.014233
N	 0.5309259105	-2.7973119796	-0.8313559222	-0.323914
C	-0.0806706919	-1.9452979791	-1.7423824473	 0.398113
O	-0.8989245997	-2.1363304972	-2.6000159737	-0.358151
C	 0.6988926144	-0.7369167663	-1.1572402551	-0.253757
H	 0.9688629253	 1.9895411762	-0.1796797473	 0.117991
H	-0.731008923	 1.9447229226	-0.6704549993	 0.131313
H	-0.30672692	 1.9098886933	 1.0460017116	 0.11994
H	-1.4049290459	-0.3212604609	 1.6152389954	 0.113682
H	-1.4605592104	-1.6242556183	 0.3474650418	 0.126509
H	 1.0630243572	-0.784191508	 1.9859938278	 0.087561
H	 2.3487422876	-1.9210104803	-0.0352275949	 0.09074
H	 0.2485614444	-3.7223885209	-0.5376140557	 0.246301
H	 1.334904684	-0.1591410094	-1.8249556518	 0.09514
129.6795	153.1736	209.5266	265.511	335.7663	397.7976	450.6771	486.4341	534.3517	601.7223	693.3048	750.6556	778.3865	786.0692	864.7471	894.2716	923.4696	941.671	970.327	990.5502	992.2128	1041.5734	1073.769	1100.866	1110.3	1134.7443	1151.2614	1186.2573	1208.0802	1261.5444	1277.2039	1321.2479	1351.0189	1393.9201	1422.1806	1484.3413	1495.4085	1499.8057	1884.6674	3021.5326	3081.2307	3097.1167	3113.3254	3118.9116	3141.7309	3178.1384	3200.7045	3590.3395
CC12CC1C1NC(=O)C21	C[C@]12C[C@H]1[C@H]1NC(=O)[C@@H]21	
InChI=1S/C7H9NO/c1-7-2-3(7)5-4(7)6(9)8-5/h3-5H,2H2,1H3,(H,8,9)	InChI=1S/C7H9NO/c1-7-2-3(7)5-4(7)6(9)8-5/h3-5H,2H2,1H3,(H,8,9)/t3-,4-,5+,7-/m0/s1
