25
gdb 60159	3.43374	0.81142	0.73847	1.5725	90.13	-0.241	0.0873	0.3284	1700.3997	0.227241	-389.494236	-389.483598	-389.482654	-389.530649	39.451	
C	-0.0204981224	 1.609791723	 0.0506497628	-0.380882
C	-0.0311858034	 0.0740006821	 0.0755774745	 0.039346
C	 0.6571691471	-0.4524364015	 1.3425004023	-0.389784
C	-1.4513465523	-0.5095475175	-0.0477787758	-0.193295
C	-2.1386146795	-0.2817185908	-1.3842182451	 0.157295
C	-3.5814076667	-0.8001047085	-1.5637223808	-0.324558
C	-3.9000771084	 0.6452343601	-2.0035925857	 0.179016
C	-5.002689558	 1.4058440202	-1.2971904475	-0.398769
O	-2.5778599355	 1.0845071119	-1.6064212477	-0.308148
H	 1.0057022856	 1.9893353271	 0.1049029327	 0.099447
H	-0.4924711595	 2.0046851368	-0.8509633722	 0.140953
H	-0.5689114317	 2.0123864141	 0.9109821552	 0.105898
H	 0.5448019012	-0.2836082663	-0.7911574949	 0.068236
H	 0.1120622727	-0.1400667441	 2.2415960291	 0.110602
H	 0.7098755599	-1.5465883492	 1.3488797631	 0.10482
H	 1.6783928399	-0.0660354908	 1.4259694898	 0.108586
H	-1.4036573973	-1.5977395094	 0.1033700071	 0.090028
H	-2.0914355312	-0.1094489264	 0.7504675425	 0.091232
H	-1.4725551593	-0.5986867801	-2.2019549367	 0.065574
H	-3.7374455161	-1.5909657987	-2.2989959071	 0.103698
H	-4.0597471269	-1.0808223032	-0.6210285309	 0.102597
H	-4.017129822	 0.7371050968	-3.0937132439	 0.069501
H	-4.9061342809	 1.3079777923	-0.2115288116	 0.11771
H	-4.9578069258	 2.4697655756	-1.5511414563	 0.126515
H	-5.9845670094	 1.0240477366	-1.5984172729	 0.114383
40.8345	48.7535	110.2792	164.3877	223.9442	235.2671	263.1729	294.6321	311.0446	333.7904	412.1997	425.5292	436.9738	484.791	687.5862	808.3946	834.7385	853.3658	908.1498	923.6276	930.7018	933.7743	963.1123	970.4734	992.9707	1062.416	1073.	1109.722	1134.5876	1146.6006	1184.406	1197.4294	1205.5963	1247.411	1255.9237	1286.6805	1300.0733	1345.0593	1368.3615	1372.7768	1383.434	1401.1325	1403.0345	1419.9149	1426.6732	1464.7599	1481.6463	1488.2668	1490.2064	1495.2777	1496.4173	1506.4294	1511.2971	2975.3345	2987.7912	2990.3764	3002.6505	3022.0091	3029.4489	3032.1144	3047.0515	3062.1216	3084.7889	3090.3934	3096.9549	3104.3303	3111.719	3125.0226	3133.9327
CC(C)CC1CC(C)O1	CC(C)C[C@H]1C[C@@H](C)O1	
InChI=1S/C8H16O/c1-6(2)4-8-5-7(3)9-8/h6-8H,4-5H2,1-3H3	InChI=1S/C8H16O/c1-6(2)4-8-5-7(3)9-8/h6-8H,4-5H2,1-3H3/t7-,8+/m1/s1
