16
gdb 78742	4.82582	1.13017	1.0369	1.6829	69.79	-0.2551	-0.0385	0.2166	1125.7977	0.124078	-437.826281	-437.818734	-437.81779	-437.858384	28.791	
O	 0.0962046012	 1.3509581326	 0.0589659045	-0.441772
C	 0.080462457	-0.0526400895	-0.0162196709	 0.169951
C	-1.321491571	-0.6396565085	-0.1338265726	-0.138347
N	-1.2979541176	-0.5882539644	-1.6294305456	-0.21222
C	 0.2686110071	-0.6331926707	-1.4368405722	-0.058722
C	 0.2247043224	-2.1616152927	-1.2886786039	-0.304975
C	-1.2254147082	-1.9270867939	-0.9085284098	 0.241883
C	-2.3540544904	-2.87530427	-0.9918918435	 0.069784
O	-2.2150945943	-4.0670110087	-1.1162601563	-0.256189
H	-0.5175726477	 1.6923562648	-0.6032313682	 0.293788
H	 0.7471759298	-0.4090111308	 0.7741974861	 0.098472
H	-2.2086494291	-0.3685381912	 0.4293051903	 0.110917
H	 0.9054300731	-0.1277395568	-2.1602621322	 0.09825
H	 0.291759058	-2.6809533819	-2.2466514182	 0.131759
H	 0.8976401537	-2.6278636685	-0.5636608013	 0.114092
H	-3.358667364	-2.3993415296	-0.9403019064	 0.083329
93.5601	147.7523	225.8631	264.7752	327.5357	402.2454	419.5785	430.2498	546.9518	694.3253	758.3191	785.2921	813.4105	870.1231	881.1808	942.0392	963.6832	991.6639	1022.041	1032.9352	1066.4144	1103.1442	1127.5442	1174.804	1196.4639	1236.483	1252.6064	1264.0565	1293.7841	1324.4238	1374.4086	1428.5911	1440.6989	1501.4681	1814.3109	2886.6124	3061.8085	3074.3252	3123.9969	3145.044	3175.788	3783.6656
OC1C2N3C1CC23C=O	O[C@H]1[C@H]2N3[C@@H]1C[C@@]23C=O	
InChI=1S/C6H7NO2/c8-2-6-1-3-4(9)5(6)7(3)6/h2-5,9H,1H2	InChI=1S/C6H7NO2/c8-2-6-1-3-4(9)5(6)7(3)6/h2-5,9H,1H2/t3-,4-,5-,6-,7?/m1/s1
