15
gdb 44901	4.35176	1.1675	1.10754	3.0912	69.94	-0.2626	-0.0107	0.2519	1075.1887	0.114935	-416.826852	-416.819823	-416.818879	-416.858333	27.34	
O	 0.0025475045	 0.0388075276	-0.0726104979	-0.359084
C	 0.0235841173	 1.2362345422	 0.0289029435	 0.411343
N	-1.0499823983	 2.1194407049	 0.1627762615	-0.319698
C	-0.4182702393	 3.444343504	 0.0167283129	-0.014029
C	 0.6517209615	 3.2192843945	-1.091200044	-0.251488
C	 1.2093106856	 2.2213795255	-0.0122912659	-0.157776
C	 0.7362348721	 3.272416894	 1.0662317321	-0.146065
C	 1.6134094496	 4.4162178924	 1.2416750038	 0.27418
N	 2.3083103164	 5.3280497445	 1.3924752039	-0.324322
H	-1.9398454102	 1.9058955437	-0.2629804333	 0.260181
H	-1.1108333068	 4.2819342484	 0.0467476933	 0.109049
H	 0.3071236229	 2.7985210309	-2.0377973134	 0.11979
H	 1.3075735346	 4.0749897393	-1.2585928266	 0.145174
H	 2.2086697764	 1.7974889412	-0.0266365809	 0.114819
H	 0.4280895937	 2.8764049367	 2.0361556309	 0.137927
131.8162	150.5113	215.9752	377.4191	429.0474	451.1984	470.9272	538.1652	555.866	653.3971	746.5169	801.0359	857.3738	868.2644	894.7977	941.9655	980.8641	1004.97	1027.4591	1070.6417	1073.1186	1108.6574	1173.0589	1197.4052	1211.9666	1227.2349	1250.0732	1304.925	1339.1933	1377.0954	1505.246	1877.6077	2354.5226	3079.4968	3097.6477	3146.7598	3156.8599	3178.2284	3623.1668
O=C1NC2CC1C2C#N	O=C1N[C@@H]2C[C@H]1[C@H]2C#N	
InChI=1S/C6H6N2O/c7-2-4-3-1-5(4)8-6(3)9/h3-5H,1H2,(H,8,9)	InChI=1S/C6H6N2O/c7-2-4-3-1-5(4)8-6(3)9/h3-5H,1H2,(H,8,9)/t3-,4+,5+/m0/s1
