17
gdb 33731	3.31655	1.56215	1.31929	1.7952	78.12	-0.2539	0.0181	0.2719	990.5132	0.136375	-384.606023	-384.599025	-384.59808	-384.6371	29.224	
C	 0.0727172045	-1.1729831335	-0.0377985414	-0.335488
C	 0.0485798951	 0.0283080972	-0.0121580912	 0.082877
C	-0.0169457992	 1.4648510511	 0.0273091936	 0.329771
C	-0.3214796984	 2.2853024201	 1.3233557269	-0.261175
C	 0.4979198503	 3.299198065	 0.4866138584	 0.032373
O	 1.2688352409	 2.1734450258	-0.0314880848	-0.313413
C	-0.4608981124	 3.6341578725	-0.677839802	-0.059022
C	-0.0947742885	 3.0570150356	-2.0220792446	-0.293627
C	-0.8649684189	 2.2181107244	-1.0371496462	-0.109848
H	 0.10200733	-2.2343838658	-0.0633654109	 0.188445
H	-1.3648937404	 2.5088357729	 1.558164445	 0.099006
H	 0.2255417197	 1.9036159278	 2.1864641332	 0.117546
H	 1.1099775741	 4.0858635434	 0.9251759213	 0.087356
H	-1.1685770233	 4.4480304156	-0.5799481951	 0.092184
H	-0.6601924939	 3.4278309365	-2.8705625572	 0.109626
H	 0.940244828	 2.8128498483	-2.2243422762	 0.135603
H	-1.8837252876	 1.902260553	-1.2202476687	 0.097784
137.2554	160.0541	355.335	367.296	478.5784	499.1668	524.2481	540.328	620.9237	630.727	685.611	700.6045	786.4761	805.5507	817.0451	857.8077	908.7039	933.6568	957.0099	978.2275	989.0149	1030.2914	1065.6261	1079.8661	1092.58	1098.5438	1132.0913	1180.4203	1210.4791	1233.5239	1247.6699	1288.9109	1303.9654	1354.4575	1462.971	1483.0817	2242.7716	3069.1319	3134.5842	3142.5393	3147.7726	3188.6016	3201.4065	3235.665	3501.1791
C#CC12CC(O1)C1CC21	C#C[C@@]12C[C@@H](O1)[C@H]1C[C@@H]21	
InChI=1S/C8H8O/c1-2-8-4-7(9-8)5-3-6(5)8/h1,5-7H,3-4H2	InChI=1S/C8H8O/c1-2-8-4-7(9-8)5-3-6(5)8/h1,5-7H,3-4H2/t5-,6+,7+,8-/m0/s1
