20
gdb 65227	2.73515	1.24899	1.10669	2.4873	79.89	-0.2406	-0.0244	0.2162	1203.531	0.169913	-403.130157	-403.12114	-403.120196	-403.164155	34.067	
C	 0.0353901598	 1.5387334618	 0.3142847694	-0.484601
C	 0.0318813912	 0.0414517394	 0.0748059777	 0.399666
C	 1.0607851998	-0.5436140105	-0.8643469052	-0.296552
C	 1.1813470717	-0.7794887033	 0.620141532	-0.313569
C	-1.3324556077	-0.6074841297	 0.0640862362	-0.169311
N	-2.2322956277	-0.3112371763	 1.2193970824	-0.324913
C	-3.4022698232	-0.0252991238	 0.3503242472	-0.285382
C	-2.4415663893	-0.0338114489	-0.8499616324	 0.386764
O	-2.5081259748	 0.2955104697	-1.9950455739	-0.288852
H	 1.0580329954	 1.9257798998	 0.3485152624	 0.109533
H	-0.4933373976	 2.0672652878	-0.4872696503	 0.126171
H	-0.4569720353	 1.7767368317	 1.261531029	 0.133385
H	 0.77197084	-1.3770727202	-1.4959691526	 0.113523
H	 1.7553788	 0.1438109274	-1.3343292479	 0.114975
H	 1.9608218512	-0.2551353388	 1.1623841457	 0.113217
H	 0.9742856572	-1.775314217	 0.9987517298	 0.104455
H	-1.2253904675	-1.6849071089	-0.1430880024	 0.082998
H	-2.3629149584	-1.0880806489	 1.8558073989	 0.224396
H	-4.1546463406	-0.8235783283	 0.2754004144	 0.120689
H	-3.9138948542	 0.9197606071	 0.5624653596	 0.133409
57.3141	109.3276	127.5237	214.3888	241.4462	290.5482	319.0243	376.3181	430.9422	472.7234	568.3954	633.9025	710.3363	779.245	782.811	848.0872	871.3718	929.7412	953.1759	959.108	995.9252	1005.252	1037.2022	1048.0548	1077.7267	1081.7731	1087.191	1105.8198	1128.5486	1187.2138	1212.0442	1255.75	1299.4247	1332.9312	1361.9111	1386.1532	1415.2418	1470.1533	1476.5475	1487.5948	1502.9721	1511.8114	1912.7639	2968.7775	3006.159	3032.1248	3068.4929	3096.8435	3114.8812	3127.7013	3134.1377	3205.6468	3220.346	3552.1556
CC1(CC1)C1NCC1=O	CC1(CC1)[C@H]1NCC1=O	
InChI=1S/C7H11NO/c1-7(2-3-7)6-5(9)4-8-6/h6,8H,2-4H2,1H3	InChI=1S/C7H11NO/c1-7(2-3-7)6-5(9)4-8-6/h6,8H,2-4H2,1H3/t6-/m0/s1
