18
gdb 9693	3.75962	1.28221	1.16271	1.7184	63.88	-0.2579	0.0502	0.3081	1078.3889	0.152038	-422.046861	-422.037542	-422.036598	-422.081406	33.299	
O	 0.1791734972	 0.5685826125	 0.8503695421	-0.427518
C	-0.2286718161	 0.2353804596	-0.4658590507	-0.074237
C	-1.5602737341	-0.491386379	-0.4882501326	-0.075836
C	-1.7555983233	-1.6852410261	-1.408870871	-0.363542
C	-1.6214340252	-1.8795572838	 0.0775023485	 0.375602
O	-0.3975151951	-2.3756342397	 0.5820794792	-0.480444
C	-2.803431435	-2.3111169088	 0.9177124281	-0.127051
O	-2.8601784618	-3.7246663485	 1.057716319	-0.421188
H	 0.3350943186	-0.2718091295	 1.296844843	 0.292223
H	-0.3080325314	 1.180836763	-1.0122691834	 0.107686
H	 0.5319382017	-0.3742858453	-0.9731810968	 0.086613
H	-2.4269615709	 0.1364707594	-0.2979211469	 0.093397
H	-2.7251401713	-1.8490056679	-1.8666954112	 0.118787
H	-0.9091427437	-1.9661389173	-2.0280133032	 0.113641
H	-0.2819669501	-3.269547532	 0.2433516199	 0.290367
H	-2.7503566407	-1.8211609049	 1.901515323	 0.098734
H	-3.738522037	-2.0024871598	 0.4399529589	 0.110681
H	-2.1589345517	-3.9681940217	 1.6702703641	 0.282085
53.782	85.9779	100.4088	140.9238	193.1911	286.3243	340.6249	399.9843	438.3993	446.5989	465.3354	486.3203	623.0688	753.5841	820.8834	890.2441	916.8585	949.7042	979.0487	1032.1256	1046.8735	1066.341	1082.5662	1088.1179	1147.3614	1185.9086	1215.1826	1273.4121	1296.9444	1333.1099	1385.5012	1390.8142	1409.76	1422.3666	1437.2491	1483.5781	1492.89	1501.5637	2994.896	3004.6983	3074.7293	3083.1038	3127.3267	3143.3179	3215.5005	3799.0066	3810.2035	3821.3697
OCC1CC1(O)CO	OC[C@H]1C[C@]1(O)CO	
InChI=1S/C5H10O3/c6-2-4-1-5(4,8)3-7/h4,6-8H,1-3H2	InChI=1S/C5H10O3/c6-2-4-1-5(4,8)3-7/h4,6-8H,1-3H2/t4-,5+/m1/s1
