23
gdb 106515	3.08435	1.28496	1.13825	1.4891	84.64	-0.2339	0.0806	0.3145	1201.7479	0.207662	-388.286298	-388.277874	-388.276929	-388.318967	33.955	
C	-0.024217359	 1.4769296464	 0.2924242259	-0.386168
C	-0.1553353202	 0.0030902706	-0.1108290396	-0.270036
C	 0.7327947906	-0.4166699171	-1.275449749	 0.347488
C	 2.2843268173	-0.4283414792	-1.0866739391	-0.260052
C	 2.2879495498	-1.5975355447	-2.1031856701	 0.125312
C	 0.8583434004	-1.9405226965	-1.6060743851	-0.306256
O	 2.2993491	-1.0906704914	-3.4313689817	-0.274969
C	 1.0988237753	-0.4080908309	-3.7818481119	-0.074435
C	 0.4527314012	 0.3386319257	-2.5943964751	-0.269969
H	 1.0114533437	 1.7266402526	 0.547424172	 0.11915
H	-0.3388416279	 2.1481277724	-0.5128308715	 0.118293
H	-0.6439522994	 1.6983351704	 1.1666978263	 0.112297
H	 0.0899665182	-0.6284416144	 0.7533861176	 0.088115
H	-1.2027530392	-0.216520312	-0.3608584429	 0.091117
H	 2.8514347609	 0.4634607053	-1.3659522835	 0.092558
H	 2.5694634775	-0.7560093767	-0.0818215355	 0.089199
H	 3.0741111186	-2.3532439322	-2.0527443911	 0.072257
H	 0.901115607	-2.539377259	-0.6920072615	 0.095364
H	 0.1530512908	-2.4016171626	-2.3021096845	 0.09596
H	 1.359038765	 0.2781026458	-4.5931011849	 0.104613
H	 0.3768330408	-1.1299219544	-4.1900281197	 0.093994
H	-0.6266055701	 0.418782016	-2.7754633112	 0.092486
H	 0.8430996789	 1.3595270358	-2.5188386538	 0.103682
90.7269	165.1579	202.154	235.264	280.6556	334.2021	393.4368	441.6347	453.1206	481.6462	597.0749	642.9867	780.5829	810.513	833.9459	837.3839	890.5538	913.5417	937.1824	948.0733	958.5479	976.4498	1023.0554	1056.187	1064.7821	1068.0012	1086.1375	1149.3828	1188.2714	1196.7676	1209.6679	1245.2138	1251.7359	1252.6484	1273.0136	1294.2716	1329.5477	1357.334	1364.4304	1377.2415	1409.599	1415.157	1466.6401	1482.1257	1487.9534	1499.6948	1500.9028	1507.7048	1529.0346	2992.4683	3005.9925	3023.5015	3034.7043	3038.7633	3044.6729	3057.9633	3063.7132	3081.2032	3092.6019	3101.2618	3105.8883	3107.9466	3110.9461
CCC12CC(C1)OCC2	CC[C@@]12C[C@@H](C1)OCC2	
InChI=1S/C8H14O/c1-2-8-3-4-9-7(5-8)6-8/h7H,2-6H2,1H3	InChI=1S/C8H14O/c1-2-8-3-4-9-7(5-8)6-8/h7H,2-6H2,1H3/t7-,8+
