17
gdb 34228	3.37179	1.58458	1.3709	1.173	78.96	-0.2398	0.0343	0.2741	965.4179	0.136902	-384.614656	-384.607806	-384.606862	-384.645619	28.553	
C	 0.0107391699	-1.2201520691	 0.0275012975	-0.37013
C	-0.036282219	-0.0170162409	 0.0264807821	 0.115191
C	-0.0845621968	 1.4112490164	 0.0228630851	 0.210027
C	-1.0863255053	 2.2787948495	 0.8117667687	-0.296282
C	-0.549944289	 3.3915467486	-0.1112432913	 0.042154
O	 0.7977452273	 3.5487664689	 0.3641951839	-0.267167
C	 1.2816475877	 2.2615164289	-0.0244581463	 0.034061
C	 1.1721981759	 2.3085974719	-1.5628044146	-0.248055
C	-0.3297710723	 2.3219035057	-1.2593062781	-0.102556
H	 0.0466653988	-2.2812284894	 0.0299633771	 0.179933
H	-2.1118457386	 1.9835488671	 0.576563593	 0.110674
H	-0.9492801197	 2.4147366971	 1.8867615284	 0.109359
H	-1.0346921575	 4.3548598785	-0.253638653	 0.085885
H	 2.1776676848	 1.9830542429	 0.5262197782	 0.089564
H	 1.6351985443	 3.1636024597	-2.0603480907	 0.103731
H	 1.4653331995	 1.3676096475	-2.034030794	 0.117183
H	-1.12546627	 2.1345277068	-1.9767950961	 0.086428
142.2359	152.9246	386.8107	405.7212	489.0134	510.0217	515.8498	546.9441	606.6323	639.6797	657.0458	720.2223	805.5251	841.6707	899.4157	909.4608	928.4974	938.0706	968.3856	992.0422	1008.4042	1037.9689	1044.237	1115.9887	1141.2081	1145.6324	1175.5105	1210.6113	1218.3288	1241.1138	1253.7015	1275.5623	1292.2936	1343.3274	1479.376	1480.4676	2227.888	3065.8084	3068.0736	3131.7091	3132.5361	3143.8033	3148.0016	3152.6889	3502.8283
C#CC12CC3OC1CC23	C#C[C@@]12C[C@H]3O[C@@H]1C[C@@H]23	
InChI=1S/C8H8O/c1-2-8-4-6-5(8)3-7(8)9-6/h1,5-7H,3-4H2	InChI=1S/C8H8O/c1-2-8-4-6-5(8)3-7(8)9-6/h1,5-7H,3-4H2/t5-,6-,7-,8+/m1/s1
