20
gdb 57314	3.00619	1.01556	0.91397	5.5825	77.77	-0.2452	-0.0279	0.2173	1370.8063	0.167629	-440.345407	-440.334755	-440.33381	-440.382027	37.78	
C	-0.0765793846	 1.5614775552	 0.1178112179	-0.393694
C	-0.0051263072	 0.0307272716	 0.0146726495	 0.107884
C	 0.7685697375	-0.5327766416	 1.2272679071	-0.411677
C	-1.4355563917	-0.5517395403	-0.0215311864	-0.410921
C	 0.7373783895	-0.323578441	-1.2943999747	 0.426804
O	 1.1569233119	 0.5001060909	-2.0652777905	-0.311842
N	 0.8839096231	-1.7058958342	-1.5148701923	-0.345775
C	 1.4964866626	-2.3441971597	-2.5901701771	 0.16598
O	 2.0169007658	-1.8242522117	-3.5367342634	-0.251994
H	 0.9229650303	 2.001574185	 0.1340622918	 0.129904
H	-0.6073988981	 1.9883929468	-0.7358874356	 0.130426
H	-0.6003383359	 1.8474734138	 1.0352851337	 0.104506
H	 0.2767878034	-0.2224971927	 2.1548087535	 0.126507
H	 0.8104704809	-1.6272768412	 1.2349333965	 0.102628
H	 1.7964472356	-0.1580657905	 1.2496969277	 0.134535
H	-1.9900147543	-0.1841578463	-0.8903679862	 0.134657
H	-1.4482827226	-1.6463825642	-0.0542962741	 0.102711
H	-1.9801370258	-0.2486931246	 0.8785028426	 0.126266
H	 0.5025709784	-2.3231552105	-0.8144876325	 0.2518
H	 1.4397495514	-3.4447936346	-2.4547811776	 0.081294
23.9968	53.9932	159.9727	176.8668	200.6823	237.4999	245.2969	250.1215	287.2983	326.8895	354.3677	379.2006	466.3253	535.2652	610.2339	653.1669	767.622	832.977	932.6179	937.2572	947.5623	968.7862	1026.7994	1030.5692	1045.4335	1081.562	1160.5328	1227.0612	1242.8863	1278.559	1405.774	1406.9008	1438.8595	1447.7351	1474.5383	1477.8248	1482.6375	1491.0706	1501.5093	1508.7553	1518.9274	1806.208	1871.343	2910.5817	3028.3485	3032.0613	3048.3513	3092.1003	3096.7897	3108.8058	3109.6508	3121.9573	3134.5776	3623.9148
CC(C)(C)C(=O)NC=O	CC(C)(C)C(=O)NC=O	
InChI=1S/C6H11NO2/c1-6(2,3)5(9)7-4-8/h4H,1-3H3,(H,7,8,9)	InChI=1S/C6H11NO2/c1-6(2,3)5(9)7-4-8/h4H,1-3H3,(H,7,8,9)
