19
gdb 49087	3.31693	1.49549	1.23846	2.9434	79.48	-0.2449	-0.0198	0.2251	1043.6556	0.161036	-385.888371	-385.881038	-385.880094	-385.920079	29.268	
O	-0.2241740108	 0.44645635	-0.7819788324	-0.275171
C	 0.1742775454	 1.0983303194	 0.1567874873	 0.046889
C	 1.396911635	 1.9294552372	 0.1539065161	 0.259519
C	 1.8570948544	 2.6574633565	 1.4163947021	-0.323519
C	 2.4967055296	 3.970330904	 0.8884185384	-0.204907
C	 2.8194277427	 3.6494416032	-0.5761241868	-0.055947
C	 3.7203209019	 2.3703264246	-0.6909700766	-0.255532
C	 2.4485110314	 1.5489188758	-0.9025194452	-0.076991
C	 1.6327385014	 2.79103459	-1.089652165	-0.081068
H	-0.393198989	 1.1188868944	 1.1157447162	 0.066466
H	 1.0115330275	 2.8534016845	 2.0840805856	 0.102703
H	 2.5766012154	 2.0602037911	 1.9862420541	 0.108144
H	 1.7778997556	 4.7958145776	 0.9415214368	 0.101374
H	 3.383745372	 4.2661138079	 1.4575493023	 0.099519
H	 3.127177685	 4.5055023797	-1.1766364772	 0.073947
H	 4.326541932	 2.3861441613	-1.5999390237	 0.110119
H	 4.3645854507	 2.1289151476	 0.1617209537	 0.093768
H	 2.345769007	 0.5979286299	-1.4106671896	 0.107487
H	 0.8540131728	 3.0240472753	-1.8031901959	 0.1032
101.8247	188.6213	211.9942	258.5386	360.9936	406.0512	464.0964	608.4768	678.6537	703.8876	749.7227	822.3415	843.9894	857.9248	881.8813	912.6047	942.5506	960.2101	984.8556	1013.9856	1035.3128	1042.5221	1057.7781	1093.2999	1121.3512	1156.2142	1170.6668	1207.3053	1236.6644	1239.2633	1263.8423	1282.4537	1298.253	1329.3274	1342.4648	1374.3106	1435.5493	1484.5767	1490.3316	1511.5109	1796.5995	2863.2194	3036.2249	3038.8641	3045.6747	3072.061	3090.8072	3100.4539	3114.0385	3191.484	3210.9128
O=CC12CCC3CC1C23	O=C[C@@]12CC[C@H]3C[C@@H]1[C@@H]23	
InChI=1S/C8H10O/c9-4-8-2-1-5-3-6(8)7(5)8/h4-7H,1-3H2	InChI=1S/C8H10O/c9-4-8-2-1-5-3-6(8)7(5)8/h4-7H,1-3H2/t5-,6+,7-,8-/m0/s1
