18
gdb 51727	2.8822	1.13237	0.90205	2.348	75.32	-0.2535	0.0221	0.2756	1303.8854	0.146572	-439.04583	-439.037148	-439.036203	-439.080641	31.494	
N	 0.297819314	 1.1310982479	-0.3605409212	-0.443262
C	 0.1479652989	-0.103195993	-0.1514225497	 0.121175
O	-1.0606625351	-0.582736502	 0.2116218977	-0.189909
C	-1.2135236694	-1.9798884586	 0.3510545265	 0.058494
C	-2.1232284706	-2.459029884	 1.5109221647	-0.263003
C	-2.7518305237	-3.5109113005	 0.5452507275	-0.329942
C	-2.1717666359	-2.6875236748	-0.6086456394	 0.426153
C	-2.8468524641	-2.1055596439	-1.7661314189	-0.258207
O	-1.8498322641	-3.1355943418	-1.9051100605	-0.276194
H	 1.2652566033	 1.325445155	-0.6097410689	 0.231006
H	 0.9203316574	-0.8812020324	-0.2257171579	 0.092449
H	-0.234764409	-2.4763966949	 0.3635296118	 0.092666
H	-1.6279356658	-2.825626375	 2.4104813588	 0.111902
H	-2.8334184108	-1.6743335606	 1.7791733819	 0.130957
H	-2.2732827846	-4.4909583077	 0.6240771287	 0.120886
H	-3.8347775428	-3.6393227753	 0.5757770756	 0.117699
H	-3.8651098164	-2.4111392165	-2.0020143189	 0.11969
H	-2.5525001612	-1.1200644419	-2.1207801677	 0.137441
26.1715	97.8349	113.9362	189.7879	229.8677	309.317	361.7104	396.749	485.9455	560.3184	632.5871	742.8193	817.7779	834.4084	859.4379	892.6981	903.8417	947.4465	969.5496	1037.598	1041.3811	1097.8756	1115.2455	1133.1381	1147.6578	1161.4378	1172.7125	1209.2949	1234.5885	1270.2407	1271.4859	1290.6342	1390.451	1430.7536	1435.2445	1478.3811	1496.8072	1537.584	1745.2666	3018.9944	3030.2823	3069.42	3084.0561	3090.1276	3124.9703	3145.3205	3183.889	3520.5306
N=COC1CCC11CO1	[NH][CH]O[C@H]1CC[C@]21CO2	
InChI=1S/C6H9NO2/c7-4-8-5-1-2-6(5)3-9-6/h4-5,7H,1-3H2	InChI=1S/C6H9NO2/c7-4-8-5-1-2-6(5)3-9-6/h4-5,7H,1-3H2/t5-,6+/m0/s1
