21
gdb 86246	2.03961	1.44632	1.08778	3.4762	78.26	-0.2366	-0.0149	0.2218	1213.6817	0.181901	-424.249871	-424.240376	-424.239432	-424.284834	35.208	
C	-0.4748914551	 1.4287144035	 0.0147889227	-0.416225
C	-0.0938160666	-0.0520291203	 0.0237102542	 0.024685
C	 0.7555844124	-0.5080109766	-1.1890450811	-0.225238
C	 1.6886825795	-1.6363632635	-0.6926086521	 0.121872
O	 3.0272946166	-1.1493894262	-0.8077812909	-0.430012
C	 1.2796987209	-1.8813554721	 0.776679324	-0.267789
C	 0.7001137754	-0.53877097	 1.2745941579	-0.092201
C	 1.7864230933	 0.4323880767	 1.6983795619	 0.148569
O	 1.7616864348	 1.0506563533	 2.734750918	-0.26591
H	 0.4106620855	 2.0727750326	-0.0118800273	 0.125695
H	-1.083234789	 1.6670657891	-0.8637334762	 0.114665
H	-1.0518755734	 1.696194579	 0.9056356768	 0.125257
H	-1.0212444713	-0.6396393617	 0.0258530679	 0.080019
H	 0.1248654556	-0.8306247327	-2.0214974398	 0.102093
H	 1.3864495865	 0.305464767	-1.5600850748	 0.121358
H	 1.5807998128	-2.5527276163	-1.2885104416	 0.068913
H	 3.622556758	-1.8300898269	-0.4767315523	 0.281761
H	 0.4882635871	-2.6389128822	 0.8163950251	 0.106197
H	 2.1148566363	-2.257156007	 1.3778565934	 0.096824
H	 0.0389678915	-0.6579094515	 2.1375602569	 0.083073
H	 2.6320245493	 0.5388830559	 0.9866037374	 0.096394
41.6608	69.7394	128.0959	218.9217	225.9654	279.2589	321.3772	347.7225	399.9058	418.0029	450.3782	475.9335	598.7243	734.8781	801.8512	831.2655	874.5644	912.8888	938.9614	969.1358	998.4508	1020.8259	1032.8726	1068.1802	1080.1962	1121.6218	1166.2156	1202.1743	1213.6377	1235.2013	1265.0545	1278.6597	1308.0972	1333.1476	1349.0465	1367.0384	1377.7114	1417.1377	1418.8369	1438.0563	1476.7512	1489.7369	1493.7261	1500.6304	1818.5589	2919.6204	3001.429	3010.2231	3032.7413	3036.9614	3059.4309	3074.9146	3079.6872	3099.1593	3103.3217	3106.3361	3810.8845
CC1CC(O)CC1C=O	C[C@H]1C[C@@H](O)C[C@H]1C=O	
InChI=1S/C7H12O2/c1-5-2-7(9)3-6(5)4-8/h4-7,9H,2-3H2,1H3	InChI=1S/C7H12O2/c1-5-2-7(9)3-6(5)4-8/h4-7,9H,2-3H2,1H3/t5-,6-,7+/m0/s1
