18
gdb 26273	3.5841	1.15594	1.0794	0.8432	78.72	-0.2659	-0.0479	0.218	1198.3851	0.149307	-398.19249	-398.184073	-398.183128	-398.226398	30.593	
C	-0.0159581025	 1.5405763813	-0.0113057599	-0.392863
C	-0.0123495656	 0.002237319	 0.0237490638	-0.05204
C	 0.7558788458	-0.5266813826	 1.24748929	-0.392874
C	-1.4267680196	-0.5277596917	 0.0195082624	 0.360835
N	-2.2205319531	-0.2006147716	 1.0495304803	-0.260425
C	-3.4531552487	-0.6943853794	 0.9924044424	 0.077244
N	-3.9477550533	-1.4654172993	 0.022124582	-0.242174
C	-3.0715886252	-1.7257420833	-0.9484004281	 0.079494
N	-1.8131072909	-1.2942332022	-1.0101897583	-0.283132
H	 1.0108070945	 1.9187037122	-0.0199427611	 0.116656
H	-0.5234104961	 1.9185351119	-0.9043193714	 0.119494
H	-0.5262071899	 1.9434484055	 0.8681635941	 0.1372
H	 0.4582129571	-0.3771175411	-0.8880832773	 0.097538
H	 0.2735615924	-0.2013546712	 2.1735576718	 0.137285
H	 0.7988034976	-1.6202942803	 1.2500498819	 0.119412
H	 1.7823363099	-0.1477004724	 1.2394204308	 0.116594
H	-4.1224569556	-0.4469012429	 1.8142460565	 0.130626
H	-3.4174194969	-2.3510269518	-1.76941969	 0.131131
29.1804	116.6997	208.2465	228.427	267.065	283.5886	307.4786	354.8005	476.8934	581.7467	604.2038	706.2153	792.0975	861.9622	906.7742	936.8446	972.1868	985.9042	1008.5086	1048.9925	1080.4212	1116.7446	1179.0586	1188.0292	1193.1421	1262.967	1316.2751	1349.1348	1374.8404	1391.6821	1412.3825	1424.4951	1465.154	1486.8474	1492.3052	1500.8339	1517.9528	1579.0695	1607.5085	3037.1745	3040.0758	3068.5356	3107.0581	3109.5276	3118.6242	3125.0145	3155.9714	3159.761
CC(C)C1=NC=NC=N1	CC(C)c1ncncn1	
InChI=1S/C6H9N3/c1-5(2)6-8-3-7-4-9-6/h3-5H,1-2H3	InChI=1S/C6H9N3/c1-5(2)6-8-3-7-4-9-6/h3-5H,1-2H3
