21
gdb 94471	2.84053	1.31353	1.1434	2.1426	78.14	-0.237	0.0656	0.3026	1174.1386	0.183277	-424.222832	-424.214096	-424.213152	-424.257109	33.189	
O	 0.3188805353	 1.2321989323	-0.2488791796	-0.423239
C	 0.1516732922	-0.0952514531	 0.1841018527	-0.014544
C	-0.2002488444	-0.3557061362	 1.6623667107	-0.109552
O	-1.3688508657	-1.1024868664	 1.2813918787	-0.325003
C	-1.2406015337	-0.7008144214	-0.1198297431	 0.446785
C	-2.3758715235	 0.2614544705	-0.5519195437	-0.273212
C	-3.105607358	-0.4280569162	-1.7266956194	-0.202773
C	-2.7881995688	-1.9221794542	-1.5424545121	-0.21013
C	-1.3247968902	-1.8957601485	-1.0789687523	-0.265465
H	 1.2329119632	 1.4921956369	-0.1002301753	 0.289428
H	 0.9641041294	-0.7381091163	-0.1800753657	 0.072877
H	 0.5005962392	-0.9545680523	 2.2561624052	 0.094924
H	-0.4496974083	 0.5663485374	 2.2053945079	 0.096876
H	-3.0403131268	 0.3775170252	 0.3094347307	 0.112173
H	-1.9909696	 1.249274999	-0.8109720207	 0.122193
H	-4.1775784368	-0.2129499583	-1.7401895183	 0.094368
H	-2.6955129038	-0.081456377	-2.68297978	 0.096688
H	-3.4194183403	-2.3488096321	-0.7536789257	 0.108056
H	-2.944995099	-2.5151046294	-2.4479680527	 0.090491
H	-0.6685247522	-1.7016180388	-1.9383555901	 0.097657
H	-0.9830762276	-2.8133465312	-0.5936395075	 0.101401
35.1857	68.0197	194.2896	220.2595	247.8497	285.234	397.1308	402.5589	473.6658	526.7246	577.81	688.395	755.7741	823.6659	848.0624	864.8053	905.6192	915.6321	961.1283	982.6308	1017.6953	1021.574	1038.6712	1072.924	1102.4539	1121.5167	1161.9929	1182.2735	1203.8471	1220.2383	1235.3498	1252.5214	1274.7934	1308.5439	1313.2806	1330.9905	1339.7373	1344.9618	1363.8218	1442.0869	1471.2474	1478.7723	1491.3956	1508.294	1514.6244	3002.6581	3008.7285	3020.8189	3032.8424	3038.9529	3058.0727	3063.4601	3088.2547	3093.6286	3101.9513	3124.6649	3827.1028
OC1COC11CCCC1	O[C@H]1COC21CCCC2	
InChI=1S/C7H12O2/c8-6-5-9-7(6)3-1-2-4-7/h6,8H,1-5H2	InChI=1S/C7H12O2/c8-6-5-9-7(6)3-1-2-4-7/h6,8H,1-5H2/t6-/m0/s1
