20
gdb 83003	2.50699	1.81555	1.5878	0.5424	77.2	-0.2203	0.0783	0.2986	962.7038	0.173511	-403.103788	-403.096494	-403.09555	-403.135063	29.97	
C	-0.1258872901	 1.5397332776	 0.0591464138	-0.446394
C	-0.0148648512	 0.035485961	-0.0782746131	 0.020484
C	 0.6396845389	-0.6559452359	-1.2185660912	-0.046369
C	 1.668471428	 0.0909499743	-2.0707272653	-0.274356
C	 2.865092539	 0.3383436446	-1.1390910209	 0.121934
O	 2.923961541	 1.6398681588	-0.4960825635	-0.289972
C	 2.8544350886	 1.0330873312	 0.8172725284	-0.096284
C	 2.5338954298	-0.3451908286	 0.2091898258	-0.032642
N	 1.1561133168	-0.8479526485	 0.1622667222	-0.138078
H	 0.719254084	 2.0810457737	-0.3643851853	 0.157676
H	-1.0372162617	 1.8617431078	-0.4581914308	 0.114979
H	-0.2367760616	 1.8291910685	 1.1097611045	 0.119465
H	-0.9049414204	-0.4615342382	 0.3086534573	 0.091269
H	 0.1572563521	-1.5168478267	-1.6764877028	 0.08553
H	 1.9714409218	-0.5321531857	-2.9174837689	 0.107317
H	 1.2949041543	 1.0352473784	-2.4784841699	 0.123775
H	 3.828220145	 0.1062590505	-1.6071405829	 0.079737
H	 3.8288944981	 1.0687390669	 1.3199620191	 0.103138
H	 2.1000158415	 1.4948386923	 1.4584005244	 0.112946
H	 3.1776180761	-1.1643998418	 0.5361647291	 0.085844
170.4423	187.4919	255.3295	303.045	315.8373	379.473	461.7357	573.6213	628.0356	679.7765	702.9916	762.6023	800.9793	832.418	874.9171	900.2388	932.8241	973.555	999.538	1012.1712	1028.8918	1057.7887	1087.6772	1091.0652	1136.0679	1152.9093	1169.048	1183.8521	1194.5654	1229.901	1254.7507	1306.2262	1315.7586	1338.9865	1350.7294	1356.9262	1382.5252	1421.9925	1434.1015	1477.1522	1503.6719	1514.8181	1530.1729	3025.8289	3032.5888	3039.5565	3058.2897	3081.7796	3083.4129	3091.9116	3097.2527	3103.3366	3125.3167	3156.5133
CC1C2CC3OCC3N12	C[C@H]1[C@H]2C[C@H]3OC[C@H]3N12	
InChI=1S/C7H11NO/c1-4-5-2-7-6(3-9-7)8(4)5/h4-7H,2-3H2,1H3	InChI=1S/C7H11NO/c1-4-5-2-7-6(3-9-7)8(4)5/h4-7H,2-3H2,1H3/t4-,5+,6+,7+,8?/m0/s1
