19
gdb 56833	3.08493	1.18525	1.00557	5.3993	80.27	-0.243	0.0358	0.2789	1230.342	0.160421	-382.001135	-381.992847	-381.991903	-382.034652	31.282	
C	 0.8740112395	 0.0943421178	 1.1686021274	-0.392959
C	-0.1309054102	 0.0870897846	-0.0033615328	-0.210755
C	-0.6382934139	 1.4420191171	-0.2501850736	 0.287165
N	-1.0180086842	 2.5195544385	-0.4236436311	-0.323401
C	 0.5310094546	-0.458562727	-1.2742821968	 0.097604
C	 0.8323351902	-1.9643149824	-1.4915863958	-0.088987
C	-0.6803058417	-2.1131136971	-1.7575340313	-0.181458
N	-0.3575833243	-0.7948195758	-2.4926098111	-0.147744
C	 0.88814267	-1.5614369337	-2.9819159617	-0.169534
H	 1.2082778855	-0.925721758	 1.3765399843	 0.129158
H	 1.7493615265	 0.7039589453	 0.9275704974	 0.13972
H	 0.4145448879	 0.5009497501	 2.0722939128	 0.141835
H	-0.9900116491	-0.526612367	 0.2832454269	 0.127267
H	 1.340749136	 0.2231699497	-1.557132187	 0.089415
H	 1.5062852889	-2.6209153569	-0.9300027318	 0.070553
H	-0.9985095726	-2.9100491357	-2.4339256003	 0.10966
H	-1.3887617477	-2.0142074661	-0.934385041	 0.105579
H	 1.6998433257	-0.9094443773	-3.3147754562	 0.108643
H	 0.6561337387	-2.326536336	-3.7261301484	 0.108238
45.0121	116.5561	198.7134	212.0169	227.0073	333.7112	375.3743	471.7507	563.4208	602.1235	618.6145	762.0074	785.3307	845.7471	861.1972	886.1997	903.6807	924.5815	994.3916	1016.4466	1055.8731	1063.9347	1083.9746	1106.6714	1133.6863	1161.0302	1166.6814	1185.1473	1197.9055	1227.1455	1249.1065	1283.4339	1299.2321	1323.5825	1409.8236	1438.6704	1493.9561	1500.5861	1519.5511	1558.4306	2359.0816	3035.4265	3043.9119	3049.6176	3059.7223	3069.855	3077.6795	3125.2879	3127.7541	3132.2816	3133.8282
CC(C#N)C1C2CN1C2	C[C@@H](C#N)[C@H]1[C@H]2CN1C2	
InChI=1S/C7H10N2/c1-5(2-8)7-6-3-9(7)4-6/h5-7H,3-4H2,1H3	InChI=1S/C7H10N2/c1-5(2-8)7-6-3-9(7)4-6/h5-7H,3-4H2,1H3/t5-,7-/m0/s1
