21
gdb 96041	2.54395	1.15292	0.91715	4.0298	79.75	-0.2743	0.0121	0.2864	1342.8138	0.18252	-424.273654	-424.264235	-424.263291	-424.309374	33.946	
C	-0.4716009808	 1.3722536811	 0.1815725815	-0.421879
C	 0.0739555938	-0.0463602268	 0.0414805432	 0.029482
C	 1.1593904063	-0.2420656383	-1.0323370772	-0.205093
C	 1.7477116307	-1.6364276995	-0.7283530159	-0.210196
C	 1.5235666219	-1.8584852363	 0.7968136418	-0.222535
C	 0.7483866606	-0.6250272618	 1.2984188599	 0.097857
O	 1.6911941668	 0.3423293447	 1.8133337528	-0.192479
C	 1.5756529024	 0.7449544695	 3.0890812103	 0.168947
O	 2.316517603	 1.5368391719	 3.591135828	-0.281711
H	 0.3279263566	 2.07801599	 0.4229710929	 0.138997
H	-0.9400502475	 1.6989064524	-0.7519912261	 0.117715
H	-1.2295022539	 1.4362324346	 0.9703895753	 0.109925
H	-0.7588314236	-0.7274570387	-0.1881119135	 0.076272
H	 0.7657227398	-0.1577663421	-2.0490167076	 0.0949
H	 1.9251405427	 0.5322729481	-0.9108102011	 0.116646
H	 1.2191051751	-2.4046142545	-1.3013960934	 0.101517
H	 2.8024124684	-1.7076605971	-1.0038587325	 0.107298
H	 0.9394692933	-2.7644882088	 0.9828181374	 0.105511
H	 2.4585548098	-1.9578828916	 1.3523846199	 0.118709
H	 0.031181865	-0.864373348	 2.0921430887	 0.076379
H	 0.7273645696	 0.2640626412	 3.6156937657	 0.073737
33.8682	45.4488	145.1549	147.8142	220.1994	227.0832	278.3797	343.6503	377.7171	521.2367	552.0824	635.4719	706.8649	779.2316	854.8827	887.889	897.2685	928.3826	961.4856	988.8596	1008.9036	1045.2325	1046.5938	1066.185	1116.3047	1166.7183	1175.7807	1214.9519	1219.9104	1261.4732	1266.5509	1309.3373	1328.435	1338.9343	1352.2388	1378.6823	1386.4385	1412.9387	1443.5309	1477.5371	1490.7281	1497.9056	1504.8943	1511.4875	1860.6679	2938.5945	2998.4123	3034.3632	3039.0534	3047.0473	3051.3747	3066.9726	3090.6602	3097.8035	3100.6747	3117.4062	3119.236
CC1CCCC1OC=O	C[C@H]1CCC[C@H]1OC=O	
InChI=1S/C7H12O2/c1-6-3-2-4-7(6)9-5-8/h5-7H,2-4H2,1H3	InChI=1S/C7H12O2/c1-6-3-2-4-7(6)9-5-8/h5-7H,2-4H2,1H3/t6-,7+/m0/s1
