18
gdb 22294	2.46357	1.33775	0.93956	2.6514	76.34	-0.2364	-0.0222	0.2142	1232.7389	0.1479	-439.085305	-439.076908	-439.075964	-439.118716	31.911	
O	-0.0204329538	 1.3646716556	-0.0054934851	-0.392866
N	 0.0791737439	-0.0343462766	 0.0145248593	-0.187463
C	-1.0594909575	-0.6129587241	 0.0054402947	 0.366389
C	-1.0717190637	-2.1182242106	 0.0255852859	-0.274482
C	-1.9147952313	-2.6696481413	-1.1382812905	-0.2158
C	-3.3396647496	-2.08593763	-1.1235968405	-0.292371
C	-3.3272268216	-0.5637931194	-1.1045951403	 0.386088
O	-4.0063431837	 0.1074890038	-1.8418335292	-0.296041
C	-2.4009557243	 0.0770155666	-0.0635081244	-0.394571
H	 0.9044434262	 1.6312391327	-0.0276442524	 0.308481
H	-0.0446095497	-2.4872432107	-0.0147974339	 0.122497
H	-1.5094827139	-2.4610504895	 0.9749023523	 0.107367
H	-1.4278988914	-2.4205898848	-2.0886841782	 0.119865
H	-1.9616558909	-3.7614943171	-1.0813592103	 0.109071
H	-3.9308894705	-2.4148614361	-1.9809863174	 0.12401
H	-3.855633488	-2.4235647758	-0.2125209605	 0.117587
H	-2.9004211426	-0.0368802889	 0.9113713649	 0.135904
H	-2.3061461876	 1.1411352662	-0.2700135645	 0.156335
67.4077	87.2201	203.7098	259.0778	325.7992	357.8821	400.2083	402.651	466.0834	487.7303	546.8819	604.4977	650.6325	747.5284	832.2324	847.3277	891.2329	891.6161	977.5732	986.6356	1040.843	1069.7069	1099.0161	1163.042	1200.8687	1229.1104	1255.4381	1276.9126	1288.7115	1337.5938	1353.2093	1365.8598	1415.27	1448.3202	1464.0766	1478.7006	1497.0852	1733.7155	1825.8248	2999.87	3003.6158	3010.8817	3039.223	3084.9527	3108.7029	3110.661	3160.7707	3824.5819
ON=C1CCCC(=O)C1	ON=C1CCCC(=O)C1	
InChI=1S/C6H9NO2/c8-6-3-1-2-5(4-6)7-9/h9H,1-4H2	InChI=1S/C6H9NO2/c8-6-3-1-2-5(4-6)7-9/h9H,1-4H2
