12
gdb 25449	7.12859	0.90561	0.80353	4.5689	71.17	-0.274	-0.0835	0.1904	1279.9768	0.079073	-431.731324	-431.724103	-431.723158	-431.76348	25.562	
O	-0.0615296421	-0.0533131389	-0.0019545419	-0.256598
C	-0.0439932922	 1.1436105806	 0.0078943187	 0.190425
N	 1.1440063262	 1.8961956329	 0.0008521648	-0.056572
C	 2.4372646645	 1.3947210968	-0.0179123502	 0.036478
N	 3.3257206608	 2.3422535537	-0.019892944	-0.302421
C	 2.5970786248	 3.5301529709	-0.0017449218	 0.17358
C	 1.253432291	 3.2738581171	 0.0111462296	-0.171173
C	 3.2209617796	 4.8063538372	 0.0019822953	 0.230855
N	 3.7063757166	 5.8566602697	 0.0053615263	-0.326991
H	-0.9395119809	 1.7876386706	 0.0233359988	 0.123819
H	 2.6205989048	 0.3322321683	-0.0288925354	 0.181448
H	 0.3939008569	 3.922472231	 0.0262242898	 0.177149
90.3199	137.3821	208.0966	245.153	252.9306	450.6882	510.0018	572.463	630.8534	643.7466	710.7255	790.1916	798.4589	878.362	979.3168	1033.6673	1041.9201	1171.4804	1239.605	1277.2613	1305.116	1411.5741	1439.4619	1542.3515	1576.408	1843.421	2357.685	3001.7774	3282.1418	3286.4526
O=CN1C=NC(=C1)C#N	O=Cn1cnc(c1)C#N	
InChI=1S/C5H3N3O/c6-1-5-2-8(4-9)3-7-5/h2-4H	InChI=1S/C5H3N3O/c6-1-5-2-8(4-9)3-7-5/h2-4H
