18
gdb 26460	3.68785	1.03279	0.99377	1.5714	79.32	-0.2128	-0.0367	0.1761	1255.9722	0.147224	-401.990556	-401.981828	-401.980883	-402.025064	31.776	
C	 0.1247164425	 1.4581496461	-0.0498746514	-0.388456
C	-0.0364944307	-0.0607528238	 0.0035845397	-0.078438
C	 0.7036885564	-0.6905643466	 1.1891727697	 0.151642
O	 1.5334722035	-0.1233253247	 1.8477607764	-0.234029
N	-1.4200276085	-0.5060518869	 0.0173679955	 0.024503
C	-2.3303251747	-0.2423506641	 1.0179547891	-0.10125
C	-3.5154883226	-0.8598469845	 0.6944356813	-0.166953
C	-3.3208961175	-1.5279640034	-0.545370669	-0.175241
C	-2.0225179285	-1.2959482346	-0.9336719252	-0.095622
H	 1.1855762848	 1.7165623123	-0.0498428724	 0.141296
H	-0.3467099399	 1.8576407086	-0.9505707372	 0.128981
H	-0.3322408206	 1.9309191477	 0.8228610063	 0.136148
H	 0.4167465708	-0.5065935535	-0.8926886717	 0.118271
H	 0.4043884135	-1.7428094178	 1.3904273722	 0.09959
H	-2.0572714763	 0.3659889303	 1.8657313013	 0.126223
H	-4.4202146149	-0.834169492	 1.2821852926	 0.097973
H	-4.0487792528	-2.1087555098	-1.0906226839	 0.097928
H	-1.4719428145	-1.6161527732	-1.8043722832	 0.117433
41.4909	65.8289	118.8715	199.6096	244.9748	255.7388	383.4688	407.0846	587.5397	622.9061	642.8378	679.7863	710.4743	740.7762	799.956	843.7769	854.5643	884.3861	923.5746	970.5402	1045.9289	1082.3914	1096.9567	1107.0301	1120.2136	1144.3051	1260.2384	1306.1755	1307.8804	1323.472	1399.0301	1412.4676	1423.2047	1434.0186	1486.0862	1492.6315	1522.8243	1563.2489	1836.3606	2898.5647	3023.7507	3059.2605	3135.2665	3143.5967	3240.0514	3249.4908	3261.1842	3269.9827
CC(C=O)N1C=CC=C1	C[C@@H](C=O)n1cccc1	
InChI=1S/C7H9NO/c1-7(6-9)8-4-2-3-5-8/h2-7H,1H3	InChI=1S/C7H9NO/c1-7(6-9)8-4-2-3-5-8/h2-7H,1H3/t7-/m0/s1
