18
gdb 89916	4.39237	0.95719	0.9249	4.3082	73.82	-0.2434	0.0273	0.2706	1291.5116	0.147303	-439.073014	-439.06433	-439.063386	-439.107005	32.376	
O	-0.2233997581	 1.4716744744	-0.1646695867	-0.427011
C	-0.0677724888	 0.0757717733	-0.0393140087	 0.122374
C	 0.4013397875	-0.4999664037	 1.3474254291	-0.329269
C	-0.9373154346	-1.2429331585	 1.4471882768	 0.401492
C	-2.0722547923	-0.2728539046	 1.3817521289	-0.273566
C	-1.3930341603	-0.665228459	 0.0963833006	-0.138809
N	-1.1077188865	-2.5601133651	 1.9469627067	-0.394284
C	-1.6500352396	-2.86453581	 3.1662192873	 0.13324
O	-2.1142329835	-2.0730228097	 3.9533462815	-0.308324
H	 0.6512298659	 1.8735218102	-0.1707217108	 0.284978
H	 0.5425993091	-0.3277413249	-0.8584119141	 0.069261
H	 1.2621371926	-1.1672022853	 1.2502183991	 0.095046
H	 0.5991621617	 0.2360255942	 2.1330548513	 0.106116
H	-3.051389166	-0.711202537	 1.5334478255	 0.128098
H	-1.9557374393	 0.7292409384	 1.7807940796	 0.127818
H	-1.9310546283	-1.1470330621	-0.7108103428	 0.08959
H	-0.6910792065	-3.3218632787	 1.4320934371	 0.243203
H	-1.626935303	-3.9590924518	 3.3477786597	 0.070047
40.8334	96.1205	185.156	190.4435	285.7473	307.141	343.7494	421.4389	448.0976	530.4862	546.3122	606.8027	697.6264	809.7874	837.4712	876.5528	933.9192	970.5675	973.9934	979.1295	1027.9534	1031.4225	1067.5999	1089.0241	1115.0259	1150.3985	1180.9839	1210.6401	1221.8017	1244.9941	1289.5498	1327.1267	1400.6903	1420.0624	1439.0787	1474.3667	1501.8146	1514.9097	1818.5345	2918.4834	3003.7577	3047.0285	3104.3426	3140.4885	3188.0544	3231.5137	3600.9744	3816.5606
OC1CC2(CC12)NC=O	O[C@H]1C[C@]2(C[C@@H]12)NC=O	
InChI=1S/C6H9NO2/c8-3-7-6-1-4(6)5(9)2-6/h3-5,9H,1-2H2,(H,7,8)	InChI=1S/C6H9NO2/c8-3-7-6-1-4(6)5(9)2-6/h3-5,9H,1-2H2,(H,7,8)/t4-,5-,6-/m0/s1
