16
gdb 15221	2.60251	1.50129	1.13539	3.46	68.18	-0.2543	-0.042	0.2123	1065.3428	0.128125	-383.745281	-383.736842	-383.735898	-383.77866	29.68	
C	-0.1564329469	 1.6139804676	-0.0397146509	-0.420151
C	 0.0232758311	 0.1095536286	 0.0285382646	-0.038066
C	 1.341312672	-0.5870184292	-0.2293755526	-0.13433
C	 2.5953381074	 0.1546707389	-0.5144239932	 0.160202
O	 3.4529631439	-0.2694089401	-1.2496823714	-0.258882
C	 0.6973701762	-0.5998908351	 1.1823232741	-0.13433
C	 1.2991266704	 0.1287387942	 2.3272805672	 0.160199
O	 1.3091825195	-0.3123564017	 3.4503578934	-0.258882
H	 0.6940574117	 2.1737772735	 0.3533439358	 0.130139
H	-0.3062507261	 1.9283172501	-1.0773197397	 0.137676
H	-1.0403274763	 1.9136406004	 0.5319604116	 0.137675
H	-0.8293820735	-0.4370423649	-0.3653829048	 0.117888
H	 1.3055152485	-1.5397972353	-0.7472397469	 0.123605
H	 2.7107424314	 1.1433045933	-0.0224040476	 0.076826
H	 0.289425425	-1.5601138095	 1.4803260319	 0.123604
H	 1.7394365755	 1.1239044392	 2.1068922286	 0.076827
69.7837	102.2272	178.6638	205.747	226.4641	249.3069	351.2667	394.3099	432.6343	507.215	530.1038	732.4699	866.4277	923.6138	928.5098	953.357	1021.8005	1043.6167	1046.0603	1101.3792	1147.0295	1173.7297	1185.7263	1247.3824	1330.8401	1342.7716	1406.2839	1424.5201	1435.1449	1464.7216	1497.4852	1510.151	1808.0011	1816.4451	2892.1644	2915.4022	3046.9177	3106.6152	3126.937	3147.3368	3169.9288	3179.7277
CC1C(C=O)C1C=O	C[C@H]1[C@@H](C=O)[C@H]1C=O	
InChI=1S/C6H8O2/c1-4-5(2-7)6(4)3-8/h2-6H,1H3	InChI=1S/C6H8O2/c1-4-5(2-7)6(4)3-8/h2-6H,1H3/t4-,5+,6-
