21
gdb 83384	2.62089	1.68328	1.51417	1.5507	81.48	-0.2453	0.069	0.3143	1002.4411	0.185436	-387.040655	-387.033305	-387.032361	-387.071749	31.306	
O	 0.0300644858	 1.5101212987	-0.1206777625	-0.45948
C	-0.0253313951	 0.112776531	-0.0172327554	 0.155826
C	 0.1807159773	-0.6152377358	 1.3285651292	-0.110797
C	-0.9672526677	 0.036656502	 2.1705364273	-0.232542
C	-2.1582510401	 0.0641602078	 1.1189300727	-0.349628
C	-1.410325549	-0.6540410215	 0.0042013574	 0.323604
C	-1.680412806	-1.5478162182	-1.2171365539	-0.340463
C	-0.5091196154	-2.4666427739	-0.7005566349	-0.278903
C	-0.6274567192	-1.7882724558	 0.7127928882	 0.000706
H	-0.4972792031	 1.9004883118	 0.5827670681	 0.282634
H	 0.6319853944	-0.2543831865	-0.8035531924	 0.082851
H	 1.1506893463	-0.6978641902	 1.8240712307	 0.056351
H	-1.21609651	-0.5623915714	 3.0503187969	 0.104339
H	-0.6924039256	 1.0338760163	 2.5302133016	 0.092859
H	-3.0307396757	-0.4917805777	 1.4714497455	 0.101645
H	-2.488323014	 1.0808960857	 0.8771998334	 0.090814
H	-2.6446911863	-2.0634561221	-1.1678940821	 0.10136
H	-1.575531362	-1.094254599	-2.2068799078	 0.100318
H	-0.7261705442	-3.5363758834	-0.6881822989	 0.100241
H	 0.4358740629	-2.3235657995	-1.2273410323	 0.112889
H	-1.1609414932	-2.4198705182	 1.4278829893	 0.065376
225.3836	247.7134	255.5844	294.3041	307.0256	373.8505	432.8293	525.9996	593.9822	672.1942	742.3434	762.0954	805.0464	819.8513	843.2386	849.1609	862.0111	905.7134	912.3657	958.8421	1000.6573	1025.7861	1058.3872	1068.5009	1094.4399	1109.269	1152.8545	1165.1937	1196.7556	1198.6316	1214.3615	1226.5739	1239.9468	1251.178	1264.4738	1278.0318	1289.6914	1300.7738	1333.6068	1352.2855	1457.3429	1483.1049	1499.2374	1501.7533	1520.9175	3035.0951	3045.8124	3050.426	3065.4701	3074.9732	3084.6723	3086.9441	3094.8959	3101.926	3121.3961	3135.3804	3826.6551
OC1C2CCC11CCC21	O[C@H]1[C@H]2CC[C@]31CC[C@@H]23	
InChI=1S/C8H12O/c9-7-5-1-3-8(7)4-2-6(5)8/h5-7,9H,1-4H2	InChI=1S/C8H12O/c9-7-5-1-3-8(7)4-2-6(5)8/h5-7,9H,1-4H2/t5-,6-,7-,8-/m0/s1
