20
gdb 82405	2.25042	1.80886	1.18232	4.0437	78.31	-0.2338	-0.0068	0.227	1094.7954	0.172619	-403.162403	-403.154081	-403.153136	-403.195441	32.113	
C	-0.140549737	 1.5444882762	-0.0514729462	-0.397145
C	 0.0930864202	 0.0348049827	 0.0183857446	-0.090095
C	 0.735343422	-0.503803265	-1.2514135655	-0.030674
N	 2.1547920197	-0.1652429539	-1.4233415048	-0.32436
C	 1.77186482	-1.5749180602	-1.2234180332	-0.044081
C	 2.2371125549	-2.2041797575	 0.0822680072	-0.212601
C	 1.3352662	-1.8322504969	 1.2785938951	-0.299034
C	 0.903448794	-0.3732272204	 1.2546431341	 0.388523
O	 1.1345120712	 0.3918066272	 2.1604143451	-0.312822
H	 0.8092516441	 2.0625270499	-0.207425385	 0.138521
H	-0.8134694758	 1.7946525619	-0.8779880456	 0.100018
H	-0.5753106156	 1.9125948002	 0.8797367361	 0.130538
H	-0.8749296095	-0.4802574997	 0.132092526	 0.092079
H	 0.097736852	-0.4539077221	-2.1331492513	 0.082635
H	 2.3723168545	 0.0184000677	-2.3983910916	 0.232464
H	 1.8182057198	-2.2222942665	-2.0966157895	 0.086457
H	 2.2635310976	-3.2938531288	-0.0196175366	 0.102247
H	 3.2630962748	-1.8758241496	 0.2772726368	 0.12613
H	 0.4210574594	-2.4398630617	 1.2324038379	 0.112095
H	 1.8287893037	-2.0357849036	 2.2311450165	 0.119102
65.9991	122.0531	197.3611	211.2965	276.0961	361.6144	394.5863	424.9969	512.6449	533.2712	620.8383	684.4826	777.4733	786.0722	812.3697	867.2608	905.4983	922.8416	951.8431	983.6624	1025.9196	1049.6262	1087.0629	1107.3573	1137.3715	1156.0882	1170.2281	1189.4614	1229.9743	1253.1658	1271.2221	1315.9397	1328.3113	1332.1628	1375.7244	1399.7541	1408.949	1458.2131	1472.5064	1486.9404	1488.5575	1500.0242	1818.9522	2980.3583	3020.4016	3045.2893	3046.0595	3086.3195	3108.2571	3113.1673	3117.5499	3127.5753	3137.6696	3512.6981
CC1C2NC2CCC1=O	C[C@H]1[C@H]2N[C@H]2CCC1=O	
InChI=1S/C7H11NO/c1-4-6(9)3-2-5-7(4)8-5/h4-5,7-8H,2-3H2,1H3	InChI=1S/C7H11NO/c1-4-6(9)3-2-5-7(4)8-5/h4-5,7-8H,2-3H2,1H3/t4-,5+,7-/m1/s1
