18
gdb 7522	3.3643	1.38438	1.31362	4.3186	72.47	-0.2401	0.0346	0.2747	1033.8183	0.152335	-343.974868	-343.965999	-343.965055	-344.008294	32.056	
C	-0.2660484026	 1.4309721892	 0.0372167446	-0.319501
N	-0.0016218718	 0.0057266279	 0.1639896462	-0.096179
C	 1.3174546406	-0.4963284278	-0.2028904011	-0.300451
C	 0.8655230531	-0.5084242312	 1.221171571	 0.324498
C	 1.5347933489	 0.3997654199	 2.2347062914	-0.472861
C	 0.3679423984	-1.8387659082	 1.795262207	-0.38149
C	-0.6106995546	-1.6519612407	 2.8673816287	 0.268356
N	-1.3737771788	-1.4805869765	 3.7182188326	-0.316434
H	 0.6132538801	 2.0760316097	 0.1845949524	 0.102329
H	-0.6554932684	 1.6211733405	-0.9676223111	 0.12993
H	-1.0349177519	 1.7217472128	 0.7591847129	 0.136333
H	 1.3391264452	-1.4070096127	-0.7978869586	 0.113014
H	 2.0877782938	 0.2301414654	-0.4619647048	 0.109358
H	 1.9179779941	 1.3130621314	 1.776821283	 0.125726
H	 0.8379934821	 0.6787904962	 3.0319090572	 0.149037
H	 2.3819420979	-0.1153073153	 2.700363698	 0.125907
H	-0.0975239786	-2.4230107783	 0.9966551233	 0.15682
H	 1.2089655324	-2.4217942823	 2.1899084172	 0.145608
59.5221	124.1587	172.3706	184.0676	228.7157	279.9082	341.7402	378.4422	392.7908	440.2654	464.5035	553.1028	718.7048	777.9276	882.3556	906.9832	935.2339	959.8098	1002.0653	1063.5335	1098.9984	1123.6199	1148.9981	1172.1504	1207.5498	1227.7869	1295.5204	1318.989	1393.9056	1419.6957	1449.9863	1451.8152	1485.8048	1486.2187	1500.7626	1509.5113	1516.7166	2359.8955	2986.0358	3040.2082	3043.7761	3074.3336	3081.0184	3099.2931	3100.9353	3110.2361	3133.7702	3163.5831
CN1CC1(C)CC#N	CN1C[C@]1(C)CC#N	
InChI=1S/C6H10N2/c1-6(3-4-7)5-8(6)2/h3,5H2,1-2H3	InChI=1S/C6H10N2/c1-6(3-4-7)5-8(6)2/h3,5H2,1-2H3/t6-,8?/m0/s1
