20
gdb 68529	2.57177	1.95076	1.66051	1.5005	81.77	-0.228	0.0267	0.2547	935.4063	0.173389	-365.981276	-365.97422	-365.973275	-366.012015	30.422	
C	-0.0492092003	 1.5059150189	 0.0237154965	-0.504346
C	 0.0324369427	-0.0114285422	 0.0274925682	 0.286168
C	 0.7197937391	-0.7138514583	-1.1881985249	-0.224138
C	 0.5315884694	-2.1371040113	-0.590401402	-0.100668
C	 1.1277090325	-1.9096088893	 0.7889630579	-0.069885
C	 0.826887738	-0.661924536	 1.154299197	-0.090887
C	-1.0314064413	-2.1295576901	-0.4660932076	-0.040427
N	-1.5852294253	-1.863659372	 0.8798752563	-0.327026
C	-1.3560109715	-0.7461506254	-0.0621325283	-0.071685
H	 0.9481101348	 1.9549452107	-0.0270181882	 0.116549
H	-0.6231508613	 1.8709945736	-0.8356264413	 0.109359
H	-0.5368864385	 1.8791997884	 0.9310909749	 0.118381
H	 0.1732483894	-0.5651782881	-2.1270359222	 0.07953
H	 1.7678099535	-0.4276696342	-1.3152825917	 0.090442
H	 0.925624961	-2.9786721121	-1.1603999149	 0.055471
H	 1.5955533301	-2.6755733112	 1.3936785721	 0.093134
H	 1.0008268317	-0.1976120641	 2.1172207088	 0.089475
H	-1.6190418584	-2.6933678095	-1.1819906028	 0.085769
H	-2.5780784172	-2.0937853361	 0.8660607918	 0.224285
H	-2.2051836686	-0.1942352917	-0.4521084195	 0.080497
207.3564	248.0484	276.7216	329.0737	344.6469	484.45	521.8564	558.0694	594.4918	680.5406	749.84	757.2652	786.4035	811.5305	866.9631	870.047	898.1164	912.3261	925.752	931.0449	948.4239	959.899	1020.7362	1061.5724	1091.9708	1101.428	1126.6508	1128.8877	1150.1917	1193.8569	1215.7901	1245.9286	1255.9947	1275.479	1291.9897	1307.9226	1371.1283	1389.5446	1413.1225	1490.8153	1493.8497	1496.8533	1647.9403	3024.8663	3034.903	3088.5344	3095.7379	3099.9324	3110.8203	3156.3947	3172.3678	3195.8619	3222.8743	3472.2141
CC12CC(C=C1)C1NC21	C[C@@]12C[C@@H](C=C1)[C@H]1N[C@@H]21	
InChI=1S/C8H11N/c1-8-3-2-5(4-8)6-7(8)9-6/h2-3,5-7,9H,4H2,1H3	InChI=1S/C8H11N/c1-8-3-2-5(4-8)6-7(8)9-6/h2-3,5-7,9H,4H2,1H3/t5-,6-,7-,8+/m1/s1
