20
gdb 41846	2.30886	2.05491	1.64426	2.1887	77.31	-0.2426	0.0312	0.2738	935.4821	0.17617	-403.189662	-403.182842	-403.181898	-403.220473	28.609	
C	 0.0008524939	 1.5429326528	 0.1495059957	-0.198239
C	 1.4304283491	 2.0972708515	 0.0182337797	-0.206539
C	 2.160485214	 1.543175397	-1.2125573818	 0.119287
C	 2.1771617699	 0.0161235383	-1.1996280811	-0.248416
C	 0.7128731757	-0.4354793829	-1.294456719	 0.02296
C	-0.0613571969	 0.0186545185	-0.0385462107	-0.19549
N	 0.0926127273	 0.1090056861	-2.5068283452	-0.26788
C	 0.5404921618	 1.2134448802	-2.9340929964	 0.119859
O	 1.5175794915	 2.0036492237	-2.4269237418	-0.243862
H	-0.4128858016	 1.8179300096	 1.1253277042	 0.093939
H	-0.6386889223	 2.0223772485	-0.5993207513	 0.118748
H	 1.4131120549	 3.1910411339	-0.0282540899	 0.105072
H	 2.0272676433	 1.8247975712	 0.8989473545	 0.097414
H	 3.1700934757	 1.9594165423	-1.2669372247	 0.085408
H	 2.7509469024	-0.3662388681	-2.0498807064	 0.107576
H	 2.6533222716	-0.3446599412	-0.281801905	 0.098628
H	 0.6543855398	-1.5264629084	-1.364984821	 0.074864
H	 0.3747046639	-0.4905519157	 0.8312284182	 0.090042
H	-1.1035332086	-0.3069558246	-0.1138019998	 0.106819
H	 0.1405573047	 1.6650763272	-3.8408071684	 0.119812
161.6408	239.0916	320.3527	346.904	409.0642	429.5485	491.4578	581.2373	647.5838	671.3102	785.8948	807.3427	829.9785	855.5732	877.943	901.9639	935.6761	966.6537	975.6238	1029.8469	1048.6049	1064.0994	1095.3271	1121.1143	1133.3219	1171.8313	1200.9173	1241.0903	1284.1369	1310.6275	1324.8048	1351.0559	1357.3452	1377.4342	1386.4197	1393.9852	1398.9438	1413.0243	1474.3663	1477.6775	1491.2304	1501.4812	1715.5669	3019.6947	3022.6498	3039.5465	3044.2511	3051.1721	3070.1527	3075.5564	3078.6372	3086.3048	3090.3262	3152.3175
C1CC2CC(C1)N=CO2	C1C[C@H]2C[C@@H](C1)N=CO2	
InChI=1S/C7H11NO/c1-2-6-4-7(3-1)9-5-8-6/h5-7H,1-4H2	InChI=1S/C7H11NO/c1-2-6-4-7(3-1)9-5-8-6/h5-7H,1-4H2/t6-,7+/m1/s1
