14
gdb 72062	2.53791	1.66567	1.29508	4.5524	67.49	-0.252	0.0037	0.2557	971.2615	0.100628	-436.620079	-436.612769	-436.611825	-436.651872	27.885	
O	-0.1504777932	 1.3140769354	-0.1537744378	-0.439093
C	 0.0510082603	-0.0357212193	-0.0856825717	 0.284437
C	 0.985813432	-0.9109904694	-0.9284754159	-0.296846
C	 0.1464970329	-2.0908599221	-0.3808387172	 0.008159
O	 0.4500921421	-2.1078208948	 1.0455270739	-0.278713
C	-0.2788326374	-0.8950693328	 1.140753955	-0.035975
C	-1.0630266923	-1.1012802937	-0.1372438959	 0.191069
C	-2.4306861857	-1.0701803363	-0.4783349154	 0.127233
N	-3.5522738367	-1.0507396505	-0.7677887749	-0.363159
H	 0.3990650603	 1.7517769194	 0.5065337037	 0.302232
H	 0.8161787084	-0.7485004632	-1.9948216063	 0.130502
H	 2.0536045803	-0.9280513894	-0.6924544133	 0.112888
H	 0.1089771731	-3.074104317	-0.8400682963	 0.118981
H	-0.5952945742	-0.5198584964	 2.1052544322	 0.138285
116.9366	150.5607	204.0255	319.8285	348.317	426.5708	477.7197	517.5761	568.1696	628.4681	641.2659	748.8619	797.621	838.6486	917.3165	929.8291	958.4983	998.4471	1027.1881	1058.6441	1121.4017	1126.6819	1179.701	1220.0696	1235.7848	1281.6053	1303.4783	1362.4594	1446.05	1495.318	2341.423	3061.8378	3133.1123	3176.3556	3216.4246	3794.3666
OC12CC3OC1C23C#N	O[C@@]12C[C@H]3O[C@@H]1[C@@]23C#N	
InChI=1S/C6H5NO2/c7-2-5-3-1-6(5,8)4(5)9-3/h3-4,8H,1H2	InChI=1S/C6H5NO2/c7-2-5-3-1-6(5,8)4(5)9-3/h3-4,8H,1H2/t3-,4-,5+,6+/m1/s1
