20
gdb 98236	2.43607	1.10373	0.95527	2.1794	77.66	-0.2401	-0.0302	0.2099	1363.5398	0.168242	-440.3477	-440.336767	-440.335823	-440.384883	37.422	
C	-0.6444461914	 1.4238461266	 0.2660708419	-0.334211
N	-1.0241898347	 0.0338442822	 0.419584934	-0.301877
C	-0.6488926301	-0.921976157	-0.464171412	 0.388229
O	 0.0618367966	-0.7269361773	-1.436073952	-0.38656
C	-1.1162442545	-2.3567184851	-0.1343421015	-0.190314
C	-0.1340810882	-2.9893617729	 0.8820402709	-0.39417
C	-2.5363857611	-2.48158622	 0.4110134322	 0.386871
C	-3.4124041525	-3.5371540437	-0.2257819152	-0.476584
O	-2.939335649	-1.7885869255	 1.3252318201	-0.327966
H	-0.1525037026	 1.7979094721	 1.1704335085	 0.124151
H	 0.0491410755	 1.4878797203	-0.572984797	 0.16596
H	-1.5145478191	 2.0573556232	 0.057592329	 0.125764
H	-1.6844001598	-0.2398712091	 1.135964446	 0.265767
H	-1.0370951746	-2.9003551001	-1.0784289888	 0.105842
H	 0.8871138341	-2.9096645687	 0.501312596	 0.145312
H	-0.1950130739	-2.4753082718	 1.8444380607	 0.138368
H	-0.3597369191	-4.048406201	 1.0418792012	 0.120956
H	-2.9030568123	-4.5073345783	-0.2328296593	 0.145275
H	-4.3610094335	-3.6140056358	 0.3064092769	 0.144837
H	-3.5960715197	-3.2730324781	-1.2741160017	 0.154349
40.4275	62.9585	76.0712	122.9114	158.9634	190.3037	223.3025	230.1158	252.4491	296.214	356.1855	402.5795	561.0685	597.2196	674.6461	696.3683	755.6714	813.0008	875.3425	962.6906	965.5173	1010.3864	1067.9857	1104.1717	1126.4828	1153.1391	1179.8976	1187.2324	1262.8801	1312.009	1350.3872	1384.1282	1402.2179	1438.2714	1459.7064	1472.9986	1494.057	1496.3915	1499.2395	1501.5204	1585.4618	1774.9046	1787.906	3026.6947	3034.8634	3042.7468	3078.0504	3088.5162	3094.8767	3115.4058	3135.3349	3152.8504	3154.9173	3560.046
CNC(=O)C(C)C(C)=O	CNC(=O)[C@@H](C)C(=O)C	
InChI=1S/C6H11NO2/c1-4(5(2)8)6(9)7-3/h4H,1-3H3,(H,7,9)	InChI=1S/C6H11NO2/c1-4(5(2)8)6(9)7-3/h4H,1-3H3,(H,7,9)/t4-/m0/s1
