15
gdb 64754	2.79809	1.29975	1.11427	3.5246	66.41	-0.2594	-0.003	0.2564	1105.2344	0.110144	-457.744879	-457.73613	-457.735186	-457.778607	31.749	
O	-0.0758400303	 1.3943008515	 0.060044841	-0.459778
C	 0.0112812518	-0.0003680193	 0.0434733885	 0.207045
C	 0.9373453958	-0.5441608519	 1.1496806774	-0.411729
C	 2.2537042713	 0.0782369273	 1.0865747597	 0.269314
C	 3.3093684728	 0.6479784624	 1.008838068	-0.410116
C	-1.3671276551	-0.6763445193	-0.0680430864	-0.11567
O	-0.9899970833	-1.2744476261	-1.3488800554	-0.240478
C	 0.2315948066	-0.6455797994	-1.3541853963	 0.409652
O	 1.0614214992	-0.6646517336	-2.202316042	-0.317552
H	 0.8270178736	 1.7409565675	 0.0683166303	 0.298179
H	 0.4703695786	-0.3262270001	 2.1183642025	 0.147597
H	 1.0205596937	-1.6342037441	 1.065878062	 0.147943
H	 4.2592052365	 1.1192980959	 0.9426331468	 0.210867
H	-1.6032798255	-1.4471943331	 0.668261298	 0.124381
H	-2.1919916158	 0.0269911923	-0.1885420241	 0.140344
68.6764	102.623	143.192	187.6369	268.4902	327.9193	348.4992	376.9111	401.1754	491.3177	562.9877	635.8655	674.5392	729.893	766.0594	778.2712	901.4493	922.3701	956.3773	978.8507	1033.2389	1114.0592	1130.6592	1155.8713	1211.1728	1275.1618	1307.8126	1347.4039	1420.6403	1459.6734	1509.1549	1942.3294	2237.302	3027.7531	3069.3628	3077.6597	3146.5825	3502.648	3755.882
OC1(CC#C)COC1=O	O[C@@]1(CC#C)COC1=O	
InChI=1S/C6H6O3/c1-2-3-6(8)4-9-5(6)7/h1,8H,3-4H2	InChI=1S/C6H6O3/c1-2-3-6(8)4-9-5(6)7/h1,8H,3-4H2/t6-/m0/s1
