20
gdb 95023	2.62526	1.80472	1.40673	3.1971	77.03	-0.2256	0.0704	0.2959	994.7518	0.173271	-403.09952	-403.091904	-403.09096	-403.131859	30.351	
C	 0.1790116059	 1.5020150512	-0.2574571155	-0.403697
C	-0.0916895395	 0.0468345294	 0.1200687053	 0.128862
O	 0.0819549349	-0.8267613961	-1.0080796813	-0.28379
C	 1.258660593	-1.6262197967	-0.8916940393	-0.089641
C	 1.574959874	-1.7286508348	 0.6061844542	-0.044391
C	 2.8771561041	-1.0949572395	 1.1442736331	-0.067265
N	 2.992652212	 0.230335951	 0.4991676216	-0.323657
C	 2.1279921378	 0.0681069474	 1.6941587032	-0.0715
C	 0.7827242197	-0.5413779808	 1.2454293285	-0.04228
H	 1.2162858258	 1.6372077249	-0.5665370254	 0.144531
H	-0.4795389048	 1.7977503938	-1.079085271	 0.114961
H	-0.0243452728	 2.1612754648	 0.5947703422	 0.097135
H	-1.1493610594	-0.0461128197	 0.4010722861	 0.069896
H	 1.0359719912	-2.596515644	-1.3477709653	 0.092974
H	 2.0942571487	-1.1645151072	-1.4314432191	 0.10669
H	 1.3508572392	-2.7044996771	 1.0379236908	 0.077331
H	 3.7523819916	-1.6054626689	 1.5260286151	 0.093394
H	 3.8652249413	 0.6488607867	 0.8185525581	 0.231239
H	 2.3117367224	 0.654698368	 2.585986905	 0.091437
H	 0.1925317848	-0.8425974226	 2.1127739238	 0.077769
52.414	165.6342	236.6028	258.8117	311.6629	411.4899	466.6572	590.6688	629.7353	663.9588	737.271	776.5231	827.6222	837.8371	864.8636	888.1514	918.5364	957.9698	978.9136	1006.33	1029.9249	1036.9543	1072.602	1082.3154	1099.0615	1111.9911	1131.8894	1162.4055	1173.6014	1230.991	1244.1846	1254.1383	1303.3696	1328.1916	1342.0965	1359.7072	1369.645	1389.9346	1397.7659	1405.8637	1488.335	1504.9601	1515.4889	3003.0268	3025.5252	3035.777	3067.1826	3090.1435	3102.6758	3109.263	3148.3599	3181.6124	3196.3002	3480.3827
CC1OCC2C3NC3C12	C[C@H]1OC[C@H]2[C@H]3N[C@H]3[C@@H]12	
InChI=1S/C7H11NO/c1-3-5-4(2-9-3)6-7(5)8-6/h3-8H,2H2,1H3	InChI=1S/C7H11NO/c1-3-5-4(2-9-3)6-7(5)8-6/h3-8H,2H2,1H3/t3-,4-,5+,6-,7+/m1/s1
