17
gdb 17442	4.05368	1.77465	1.67486	1.2259	68.02	-0.2181	0.0627	0.2808	850.6129	0.141554	-363.765834	-363.758512	-363.757568	-363.79683	28.97	
C	 0.0957678236	 1.4921280098	 0.0594420676	-0.477433
C	-0.1210016988	 0.0108465839	-0.023684219	 0.335988
C	-0.996263866	-0.7630811207	 0.88197425	-0.297049
N	 0.4839087468	-0.9311412293	 0.9806490142	-0.188617
C	 1.0137843476	-1.7528519942	-0.1665233843	-0.071029
C	 0.1056641675	-2.2353323405	-1.2646164996	 0.094557
O	-1.1914204836	-2.7609872799	-1.1796569842	-0.418798
C	 0.4413837583	-0.7853345377	-1.2231008431	-0.180614
H	 1.122994958	 1.7555586378	-0.2168644024	 0.121512
H	-0.5835117275	 2.0228138938	-0.6185138694	 0.121105
H	-0.0845579014	 1.8500308564	 1.0768635474	 0.127851
H	-1.3762919232	-0.2272960475	 1.7484669447	 0.111653
H	-1.6178918914	-1.5645585819	 0.5137687425	 0.145178
H	 2.0168428868	-2.144816048	-0.0413330912	 0.099084
H	 0.7083190145	-2.7308225575	-2.0318020094	 0.096422
H	-1.1213325169	-3.6476228239	-0.8078221876	 0.28784
H	 0.9383889057	-0.2851624107	-2.0455005061	 0.092349
141.8196	202.2303	254.1507	303.2372	308.8715	350.7638	446.5023	539.1283	590.4724	642.5675	714.7933	724.2035	752.4776	848.7341	882.5647	940.914	979.552	988.3522	996.42	1030.7382	1070.247	1087.8995	1101.3439	1136.4032	1138.1708	1214.3323	1244.1468	1293.512	1306.5303	1343.7004	1384.8677	1418.059	1461.1793	1480.8738	1493.7833	1500.0829	3025.005	3058.1105	3085.2292	3113.957	3125.6131	3169.4818	3184.5348	3263.39	3796.1683
CC12CN1C1C(O)C21	C[C@]12CN1[C@H]1[C@@H](O)[C@@H]21	
InChI=1S/C6H9NO/c1-6-2-7(6)4-3(6)5(4)8/h3-5,8H,2H2,1H3	InChI=1S/C6H9NO/c1-6-2-7(6)4-3(6)5(4)8/h3-5,8H,2H2,1H3/t3-,4+,5-,6+,7?/m0/s1
