21
gdb 98351	4.1134	0.7169	0.67608	3.5538	80.56	-0.2483	-0.0282	0.2201	1721.0894	0.178145	-424.264321	-424.253137	-424.252193	-424.302859	37.928	
C	 0.1156798317	 1.5156292326	 0.087952884	-0.3767
C	-0.0440384387	 0.0021173359	-0.0309011131	-0.28467
C	-1.4947609941	-0.4615808581	-0.0337577215	 0.377958
O	-2.4173356985	 0.3161189099	-0.1179650004	-0.305883
C	-1.731090696	-1.972993171	 0.0773411238	-0.094954
C	-1.6645963527	-2.39334687	 1.5617482	-0.401139
C	-3.083633363	-2.3631346668	-0.5549786983	-0.26707
C	-3.1803388856	-3.8588406092	-0.7391226952	 0.149797
O	-3.9556155011	-4.5823791676	-0.1685964309	-0.237889
H	 1.1704208396	 1.798783248	 0.0341807131	 0.11201
H	-0.4248649507	 2.0257532048	-0.7125565572	 0.13696
H	-0.2903153031	 1.8784458394	 1.0361423013	 0.129514
H	 0.4042664796	-0.3671938022	-0.9653974655	 0.126454
H	 0.4963547579	-0.524497164	 0.7660227298	 0.12154
H	-0.9170398292	-2.4809111664	-0.4587594957	 0.084489
H	-2.422401464	-1.8580568049	 2.1422956351	 0.140782
H	-1.8576662503	-3.4646010597	 1.6670054993	 0.141616
H	-0.6849412292	-2.1830291081	 1.9997011659	 0.122638
H	-3.9143646113	-2.0142402711	 0.0616827213	 0.135062
H	-3.1688819669	-1.8896380255	-1.5412077047	 0.121266
H	-2.4392847344	-4.2771952861	-1.462887431	 0.068219
34.8012	42.8178	50.0431	67.546	158.4809	183.485	217.0293	248.7615	255.6506	295.2658	341.2404	432.9618	518.052	568.0664	646.7383	784.4919	800.8178	813.3531	914.2155	953.4355	986.2544	1002.0769	1022.4677	1049.1468	1097.4629	1119.8895	1130.2058	1159.2978	1230.4215	1269.7449	1280.4085	1321.0908	1362.0794	1383.4853	1411.6394	1414.8147	1429.9502	1450.0282	1463.2908	1492.5071	1496.3348	1498.5645	1502.2839	1806.0965	1833.5339	2837.9219	3007.1896	3015.7217	3038.8278	3042.1869	3050.2904	3052.6605	3116.5107	3118.0142	3121.4465	3123.6098	3131.7595
CCC(=O)C(C)CC=O	CCC(=O)[C@@H](C)CC=O	
InChI=1S/C7H12O2/c1-3-7(9)6(2)4-5-8/h5-6H,3-4H2,1-2H3	InChI=1S/C7H12O2/c1-3-7(9)6(2)4-5-8/h5-6H,3-4H2,1-2H3/t6-/m0/s1
