17
gdb 112451	2.25316	1.5807	1.04066	5.0211	65.2	-0.2859	0.041	0.3269	1155.5923	0.135273	-496.154319	-496.14564	-496.144695	-496.188159	30.944	
C	 0.2682688955	 1.391755757	 0.0807642008	-0.250586
O	 0.1784362275	-0.0277081861	 0.0523360614	-0.229726
C	 0.5711688007	-0.595590384	-1.1439065922	 0.183254
O	 1.9749596121	-0.4258318372	-1.36700489	-0.248699
C	 2.6388502556	-1.5607904205	-0.9961168363	 0.482351
O	 3.8201805454	-1.653097525	-0.9106455138	-0.370075
O	 1.7566840357	-2.5578296314	-0.7585475101	-0.253958
C	 0.4231073143	-2.1282230536	-1.0900196819	 0.078756
C	-0.5698319963	-2.6762936019	-0.0857375761	-0.404593
H	 1.3061895337	 1.7255988535	-0.0188592446	 0.144968
H	-0.3322275237	 1.8389389975	-0.7242646391	 0.11574
H	-0.128418724	 1.7111489785	 1.0455133824	 0.14004
H	 0.05874468	-0.1288468389	-1.995080846	 0.091219
H	 0.2007763803	-2.497836457	-2.0982870671	 0.105245
H	-0.3466689084	-2.3069048415	 0.9156119944	 0.151353
H	-1.5837178244	-2.3659630452	-0.3540575207	 0.128258
H	-0.5302290639	-3.768191964	-0.0871566912	 0.136452
79.0607	116.9834	140.2936	191.0055	211.3612	228.3013	296.6702	384.4255	500.5553	505.35	583.6811	702.8743	763.9157	788.0188	878.107	926.4933	959.3134	984.5435	1025.4366	1083.3888	1121.6238	1141.466	1154.6801	1181.8328	1200.8993	1243.5272	1356.2565	1376.7389	1396.8595	1399.8975	1418.1507	1481.6803	1485.3854	1487.0534	1494.6656	1511.7399	1931.3887	3004.729	3025.5388	3042.5631	3058.617	3084.9856	3128.1938	3142.1704	3157.7781
COC1OC(=O)OC1C	CO[C@H]1OC(=O)O[C@H]1C	
InChI=1S/C5H8O4/c1-3-4(7-2)9-5(6)8-3/h3-4H,1-2H3	InChI=1S/C5H8O4/c1-3-4(7-2)9-5(6)8-3/h3-4H,1-2H3/t3-,4-/m0/s1
