20
gdb 116585	3.32136	1.0195	0.81734	2.9505	84.52	-0.2251	-0.004	0.2211	1448.5426	0.1708	-399.36043	-399.350806	-399.349862	-399.395834	34.584	
C	-0.4173499115	 1.4733303502	-0.2452877713	-0.372893
C	 0.5479058412	 0.3474930766	 0.1152125054	-0.13373
N	 1.1778403276	-0.1950649168	-1.0821392449	-0.33366
C	 2.0229541272	-1.1281015359	-0.9441175339	 0.41255
N	 2.4743862168	-1.7588121984	 0.219519634	-0.360363
C	 3.3722313111	-2.7557792244	-0.1433119994	 0.059399
N	 3.616339634	-2.8653436808	-1.3893427279	-0.249487
C	 2.7937159219	-1.8374830794	-2.0601486924	-0.062811
C	 1.8773110813	-2.4420082431	-3.1250901397	-0.377344
H	 0.1135250931	 2.2794846392	-0.7596935131	 0.123336
H	-1.1981114947	 1.1054761918	-0.917268462	 0.122996
H	-0.8937088472	 1.8853566751	 0.6500685981	 0.102863
H	 1.3106014719	 0.7294568711	 0.8153847248	 0.088428
H	 0.0003438887	-0.4433771846	 0.6566107008	 0.086966
H	 2.1284501022	-1.5908772193	 1.1480323889	 0.263338
H	 3.8200286151	-3.3755528219	 0.6276315502	 0.132355
H	 3.4698452168	-1.1184839735	-2.5399118561	 0.117343
H	 1.2224804986	-3.1991698393	-2.6837131284	 0.117944
H	 1.2549675652	-1.6561207641	-3.5600996137	 0.137259
H	 2.4714102507	-2.9158237426	-3.9102400193	 0.125511
30.7958	97.1993	127.5506	149.8749	227.3017	238.4924	266.9407	300.9827	350.727	410.3259	480.0346	590.0511	674.6453	741.6662	800.55	826.6389	853.5576	887.2758	931.5501	942.0941	1047.2134	1067.4058	1083.1436	1106.6324	1112.3461	1122.1116	1137.6058	1215.4548	1283.3526	1302.8269	1320.5191	1351.1283	1384.0122	1394.4158	1405.494	1411.6479	1481.8176	1486.835	1487.3179	1495.4719	1504.82	1681.7934	1775.7762	2942.0007	2969.4152	3030.3012	3040.6253	3046.9764	3112.931	3118.7955	3121.9479	3135.8552	3187.5817	3678.542
CCN=C1NC=NC1C	CCN=C1NC=N[C@H]1C	
InChI=1S/C6H11N3/c1-3-7-6-5(2)8-4-9-6/h4-5H,3H2,1-2H3,(H,7,8,9)	InChI=1S/C6H11N3/c1-3-7-6-5(2)8-4-9-6/h4-5H,3H2,1-2H3,(H,7,8,9)/t5-/m0/s1
