14
gdb 48477	2.02118	1.74607	1.28206	1.6012	63.27	-0.2568	-0.0715	0.1853	1002.4676	0.099589	-473.842087	-473.833991	-473.833047	-473.875882	27.993	
O	-0.4957270708	 0.4793334507	 0.6227556531	-0.233748
C	 0.3710196857	 0.6706607865	-0.1859737743	 0.135012
C	 1.3630715596	 1.8428876594	-0.1176542295	 0.073783
C	 1.3434806907	 2.5936461529	 1.2236534134	-0.16813
O	 2.684543146	 2.3844305579	 1.746052595	-0.20871
C	 3.3221059348	 1.6403281435	 0.8314677872	 0.136312
N	 2.7263044895	 1.2720382365	-0.2328727873	-0.32541
C	 1.1445638611	 2.750585046	-1.3388439448	 0.135021
O	 0.7726975328	 3.8901356315	-1.2678424182	-0.233753
H	 0.5416472035	-0.0083384207	-1.0455896402	 0.113401
H	 1.1767575854	 3.6642579503	 1.0962997141	 0.152601
H	 0.621436015	 2.1711533369	 1.9239217902	 0.152601
H	 4.3492134244	 1.3951439471	 1.0781485753	 0.157627
H	 1.3865499322	 2.2639295716	-2.3051244438	 0.113394
54.8449	74.7286	128.0006	235.9484	248.3525	299.6396	344.1633	478.7057	543.8719	655.8642	661.2178	827.029	857.7851	906.595	943.6728	964.6416	968.4289	992.9392	1091.1326	1143.4795	1148.8328	1227.803	1237.5192	1320.7728	1366.9151	1390.8879	1422.8687	1518.341	1674.9341	1811.4595	1848.9318	2927.1665	2940.2805	3088.8255	3147.4592	3220.4523
O=CC1(COC=N1)C=O	O=CC1(COC=N1)C=O	
InChI=1S/C5H5NO3/c7-1-5(2-8)3-9-4-6-5/h1-2,4H,3H2	InChI=1S/C5H5NO3/c7-1-5(2-8)3-9-4-6-5/h1-2,4H,3H2
