19
gdb 124573	4.11697	0.9019	0.87364	1.2439	76.53	-0.2879	-0.0226	0.2653	1407.5928	0.159114	-419.22408	-419.215124	-419.21418	-419.25884	32.312	
C	-0.0594764187	 1.5203514517	 0.172862668	-0.384858
C	-0.0169927219	-0.0028841014	-0.0008757362	 0.040653
C	-1.4288745465	-0.6008507791	 0.0056086219	-0.394221
C	 0.7245263125	-0.407893648	-1.2959410339	-0.303986
C	 2.1709537921	-0.0405764726	-1.28770998	 0.370962
N	 2.6945898521	 0.8074685027	-2.1346392061	-0.178574
O	 4.0500378605	 0.8492040438	-1.7680357152	-0.153097
C	 4.1745261833	 0.0157092781	-0.7368027243	 0.10616
N	 3.0766673221	-0.5673067226	-0.38084007	-0.305005
H	 0.9432370771	 1.9578940708	 0.1770992806	 0.121846
H	-0.62261011	 1.9908566014	-0.6419043187	 0.115791
H	-0.5475812206	 1.7905138965	 1.1146218057	 0.113418
H	 0.5437448658	-0.4316145859	 0.8391894628	 0.098534
H	-2.0225728549	-0.2153247168	-0.8318912206	 0.114583
H	-1.4031364553	-1.6924708438	-0.0768978074	 0.112798
H	-1.9566178116	-0.3460358207	 0.9301076114	 0.114302
H	 0.6533271845	-1.4945045937	-1.4237926251	 0.12213
H	 0.2515409815	 0.0585321773	-2.1662544903	 0.123754
H	 5.160249438	-0.0923912679	-0.3078024525	 0.16481
40.6801	69.3415	113.1606	218.376	246.1135	288.5276	316.9605	352.8116	415.4472	428.2809	632.4509	697.4088	785.5164	834.8992	882.3158	906.9651	909.7553	931.9449	957.4241	968.2209	983.6929	1001.9059	1121.0905	1139.3058	1151.351	1191.4034	1245.8334	1295.1157	1313.9171	1359.4234	1371.8413	1379.1689	1402.0294	1423.2628	1467.9407	1485.3962	1493.4883	1504.7777	1507.5758	1523.3017	1603.8111	3024.8165	3027.8272	3032.1122	3040.0602	3089.3079	3091.6346	3099.6853	3102.7532	3108.8308	3263.7505
CC(C)CC1=NOC=N1	CC(C)Cc1nocn1	
InChI=1S/C6H10N2O/c1-5(2)3-6-7-4-9-8-6/h4-5H,3H2,1-2H3	InChI=1S/C6H10N2O/c1-5(2)3-6-7-4-9-8-6/h4-5H,3H2,1-2H3
