16
gdb 31166	2.19896	1.62648	0.96222	1.5005	68.31	-0.1797	0.0346	0.2143	1157.8251	0.123856	-475.033073	-475.023992	-475.023047	-475.066827	33.362	
N	-0.077547514	 1.3072014755	-0.3825317409	-0.59941
C	-0.1226811863	-0.0565890918	-0.1665982907	 0.329098
C	-1.1742691806	-0.933430458	-0.0905717825	-0.02526
C	-2.6270768803	-0.5761453592	-0.0858315382	-0.194702
O	-2.9278375938	 0.5269703084	-0.942880293	-0.412271
C	-0.5560213789	-2.2343920563	 0.0096609703	 0.227049
O	-1.1823675008	-3.4395391386	 0.099087987	-0.442468
C	 0.7876859793	-2.0530895146	 0.0051304117	-0.144817
O	 1.0576683529	-0.6982764759	-0.118291158	-0.176692
H	 0.6294349411	 1.7917162474	 0.1543543075	 0.25473
H	-0.9933221379	 1.7305743189	-0.313146018	 0.263232
H	-3.2381210235	-1.4560130578	-0.3555295397	 0.079579
H	-2.9744643119	-0.2532594729	 0.9039930745	 0.12283
H	-2.5705753926	 0.3129413304	-1.8126075708	 0.288505
H	-2.1319951889	-3.2960601962	 0.1440744016	 0.296971
H	 1.6358949461	-2.708141519	 0.0740582292	 0.133626
80.4724	142.6268	153.6024	190.5812	225.4278	276.8087	320.6668	362.6663	407.9011	433.1009	545.5517	584.1497	606.0834	639.2099	677.9207	724.5753	748.8066	783.2016	955.8738	1028.5296	1033.9556	1108.1076	1156.0776	1186.2442	1212.2329	1249.889	1312.8673	1360.8171	1387.2981	1418.3822	1493.8616	1507.3436	1596.4127	1654.439	1698.1258	2936.4507	3029.8554	3309.89	3541.5479	3650.3028	3794.9541	3839.712
NC1=C(CO)C(O)=CO1	Nc1c(CO)c(O)co1	
InChI=1S/C5H7NO3/c6-5-3(1-7)4(8)2-9-5/h2,7-8H,1,6H2	InChI=1S/C5H7NO3/c6-5-3(1-7)4(8)2-9-5/h2,7-8H,1,6H2
