18
gdb 88721	3.2634	1.0209	0.84824	4.0992	77.49	-0.2632	0.0343	0.2976	1343.668	0.147269	-401.929566	-401.920726	-401.919782	-401.963868	32.838	
O	-0.1215333754	 1.4854521381	 0.0976488207	-0.416939
C	-0.032580518	 0.0913016575	 0.0197721559	 0.083587
C	-0.5057140983	-0.7432680135	 1.1822315104	-0.333573
C	-1.3325943685	-0.6571364808	-0.0888696335	-0.031439
C	-2.6215056523	 0.0971715565	-0.0940555966	 0.004288
C	-3.5359118805	 0.0507224018	-1.2795941724	-0.29988
C	-3.9568903235	-0.639816958	 0.011958413	-0.18746
C	-3.9832047293	-2.0734962202	 0.0687345887	 0.28911
N	-3.9973229377	-3.2299041412	 0.1164825385	-0.348201
H	 0.5524122137	 1.7914041528	 0.7134047175	 0.291616
H	 0.8071128346	-0.2789074397	-0.5678679774	 0.092567
H	 0.0018763189	-1.6731054744	 1.4125106291	 0.122065
H	-0.8799895329	-0.2009099987	 2.0446323334	 0.116477
H	-1.3212894875	-1.5378650259	-0.723737798	 0.106518
H	-2.5878711503	 1.0360120127	 0.4467240914	 0.112144
H	-4.0847864581	 0.9419949074	-1.5602946493	 0.130087
H	-3.2604428315	-0.5927530299	-2.1076184644	 0.138268
H	-4.7358233435	-0.1624052746	 0.5966622128	 0.130765
41.0352	92.7347	162.2195	190.9391	240.7433	308.565	339.6786	379.2811	458.2696	529.8559	566.3135	646.1624	760.5233	776.7173	809.2358	839.6003	863.0942	914.6452	978.3664	982.2287	1021.4141	1029.8846	1059.6722	1077.7618	1119.4671	1130.324	1143.1381	1173.1563	1199.7978	1227.1573	1246.6178	1298.1991	1314.7866	1373.6393	1415.2344	1449.1796	1484.52	1497.9923	2349.6936	3102.1889	3132.4357	3142.4772	3155.7879	3168.4308	3184.6137	3223.1023	3233.3688	3809.5435
OC1CC1C1CC1C#N	O[C@H]1C[C@H]1[C@H]1C[C@H]1C#N	
InChI=1S/C7H9NO/c8-3-4-1-5(4)6-2-7(6)9/h4-7,9H,1-2H2	InChI=1S/C7H9NO/c8-3-4-1-5(4)6-2-7(6)9/h4-7,9H,1-2H2/t4-,5-,6-,7-/m0/s1
