16
gdb 6829	3.18864	1.70538	1.4738	4.0118	61.61	-0.2467	-0.0314	0.2153	901.7877	0.127241	-420.857509	-420.849005	-420.848061	-420.890734	30.118	
C	-0.1437049423	 1.5561290045	-0.0460893955	-0.469508
C	-0.0161739037	 0.0394920987	-0.0278048043	 0.306196
O	-1.2381038584	-0.6081675053	-0.2800478773	-0.462936
C	 1.2308854374	-0.5003192772	-0.7802925113	-0.104468
O	 1.9109828909	-0.7660256028	 0.4642859458	-0.271324
C	 0.7133610291	-0.5724264038	 1.216018673	 0.030081
C	 0.8577368175	 0.2860232073	 2.4457135353	 0.132012
O	 1.8492582365	 0.8924698636	 2.7546110595	-0.241421
H	 0.7997142262	 2.0297897303	 0.2372475778	 0.157104
H	-0.4017949375	 1.8987319806	-1.0558333404	 0.117443
H	-0.9246006809	 1.8931775279	 0.642739034	 0.130395
H	-1.7513627448	-0.0727268925	-0.8939540184	 0.28568
H	 1.0152609675	-1.4190908846	-1.3395217581	 0.106268
H	 1.7874613139	 0.2045349947	-1.407848316	 0.106702
H	 0.2307486662	-1.5219607488	 1.4978048296	 0.099058
H	-0.0728335478	 0.3270482176	 3.0601007166	 0.078719
72.4654	83.2062	186.8392	216.1238	241.1303	283.8877	303.8007	363.719	409.4204	478.3186	632.0704	753.8693	775.1337	883.7957	901.1063	953.7794	988.8003	1003.2496	1025.7888	1113.3152	1124.2493	1156.4922	1182.054	1202.0701	1275.6659	1327.7603	1358.4043	1389.2165	1410.0496	1417.3108	1492.7985	1496.1925	1514.9031	1835.6125	2852.0286	2987.1905	3019.6775	3027.4997	3077.223	3095.9072	3126.3707	3813.8253
CC1(O)COC1C=O	C[C@@]1(O)CO[C@H]1C=O	
InChI=1S/C5H8O3/c1-5(7)3-8-4(5)2-6/h2,4,7H,3H2,1H3	InChI=1S/C5H8O3/c1-5(7)3-8-4(5)2-6/h2,4,7H,3H2,1H3/t4-,5+/m0/s1
