17
gdb 45575	2.5841	1.81843	1.48536	3.4025	69.19	-0.2361	0.0251	0.2612	935.9832	0.138452	-455.124658	-455.1173	-455.116356	-455.156498	28.479	
N	-0.0199057789	 0.6887941765	 1.0372509994	-0.552598
C	 0.002492875	-0.2664026093	 0.2114463594	 0.343624
N	 0.9589656002	-0.9389375431	-0.5539819136	-0.322223
C	 0.0684804302	-2.0574886852	-0.901447577	-0.025987
C	 0.1821244382	-3.303431379	-0.0222673395	-0.099282
O	-0.0035507372	-2.9326273696	 1.3338911529	-0.251348
C	-1.309564239	-2.4916418481	 1.6332361451	 0.016363
O	-1.9594179644	-1.8650831266	 0.5437288385	-0.257255
C	-1.1056804825	-1.1880416309	-0.3347856156	 0.04894
H	 0.9160580538	 1.055830705	 1.2210053981	 0.210098
H	 1.9418948605	-1.0147461837	-0.3280167054	 0.238857
H	 0.0584860098	-2.3078938783	-1.9666989341	 0.082171
H	-0.5606924715	-4.0480466043	-0.3475713743	 0.108118
H	 1.1740795221	-3.761426937	-0.0846238388	 0.112563
H	-1.960965985	-3.3342498804	 1.9063572906	 0.103631
H	-1.2011783349	-1.800293399	 2.477506311	 0.127513
H	-1.7377342665	-0.7150088271	-1.0868453569	 0.116816
109.9532	125.6459	251.9586	274.9868	360.9615	416.5295	462.835	500.5896	582.5236	663.3983	713.4725	803.9854	825.2339	852.1573	897.3647	909.3383	994.3448	1010.0676	1024.8603	1057.4417	1078.8546	1112.4891	1153.3409	1185.2048	1208.6439	1226.6891	1260.3766	1298.9337	1308.8062	1350.2258	1359.5111	1376.8209	1400.116	1456.2053	1489.8961	1527.0676	1796.0604	2993.0171	2999.8722	3058.7391	3063.1586	3082.6271	3117.2401	3452.5232	3579.3387
N=C1NC2COCOC12	[NH][C]1N[C@H]2COCO[C@@H]12	
InChI=1S/C5H8N2O2/c6-5-4-3(7-5)1-8-2-9-4/h3-4H,1-2H2,(H2,6,7)	InChI=1S/C5H8N2O2/c6-5-4-3(7-5)1-8-2-9-4/h3-4H,1-2H2,(H2,6,7)/t3-,4+/m0/s1
