25
gdb 122019	5.35324	0.53226	0.5047	1.8228	88.33	-0.2482	0.0853	0.3335	2287.4341	0.225455	-426.615651	-426.603636	-426.602692	-426.65418	41.246	
C	 0.0142326226	 1.5002162393	 0.0712669087	-0.384965
C	 0.0335114662	-0.0185264983	 0.0297478495	-0.027209
O	 0.7033358323	-0.4926656073	 1.1786046107	-0.246043
C	 0.7835370239	-1.8993908828	 1.2407712971	-0.055285
C	 1.4915400507	-2.2983335605	 2.535513872	-0.013743
C	 0.7201595594	-1.8277396724	 3.7733886201	-0.385998
C	 1.7268511232	-3.8082321263	 2.5549897086	-0.05491
O	 2.5038040823	-4.1345632755	 3.6868747356	-0.233129
C	 2.7429010721	-5.5145057517	 3.8091251416	-0.22705
H	 1.0335908114	 1.896149042	 0.0889785495	 0.126613
H	-0.4992038659	 1.9000102925	-0.8082975306	 0.113389
H	-0.5049821393	 1.8525883052	 0.9670968396	 0.126424
H	-0.9947108898	-0.4181397602	-0.0037723381	 0.083795
H	 0.5438222383	-0.3741097266	-0.8820968889	 0.083103
H	-0.2289852724	-2.3415197175	 1.2068239104	 0.079569
H	 1.3338313433	-2.2873508053	 0.36548547	 0.079489
H	 2.4772840221	-1.8157829701	 2.5291391326	 0.09184
H	 1.2560033303	-2.1003888043	 4.6849517014	 0.126988
H	 0.5821281865	-0.7448422773	 3.7485016142	 0.126175
H	-0.2722438892	-2.2948104993	 3.8116849364	 0.100954
H	 0.7616050389	-4.3461171842	 2.5876873648	 0.079993
H	 2.2446047169	-4.1305592584	 1.6342496857	 0.08002
H	 1.806038846	-6.0856461036	 3.91153013	 0.102171
H	 3.2917691477	-5.9142286684	 2.9410397087	 0.101538
H	 3.3472792424	-5.6649250088	 4.7071405007	 0.126272
43.3008	70.1564	82.227	95.49	111.9143	145.9836	196.009	222.9941	237.9189	245.0132	296.4272	307.7834	363.3269	425.0913	501.6543	560.5433	820.4005	856.1838	901.3788	928.3396	937.3486	970.2536	993.8323	1045.9527	1119.5201	1154.2038	1158.2797	1167.41	1170.2244	1181.4239	1191.6751	1199.8421	1230.4127	1260.7869	1286.4248	1295.4451	1303.4305	1381.3106	1388.1446	1396.7045	1409.0228	1427.5545	1451.9518	1480.3763	1483.2909	1484.8546	1496.8927	1499.1563	1499.6818	1504.3229	1513.5281	1528.3529	1538.0135	2928.8181	2936.8263	2952.4263	2956.6098	2965.5472	2967.5087	2972.8587	3007.5972	3027.8339	3039.624	3044.7837	3108.5807	3111.8886	3119.1084	3121.1907	3140.4857
CCOCC(C)COC	CCOC[C@@H](C)COC	
InChI=1S/C7H16O2/c1-4-9-6-7(2)5-8-3/h7H,4-6H2,1-3H3	InChI=1S/C7H16O2/c1-4-9-6-7(2)5-8-3/h7H,4-6H2,1-3H3/t7-/m0/s1
