20
gdb 39449	2.36537	1.93133	1.30069	1.8831	77.8	-0.2419	0.0692	0.3111	1024.6073	0.173977	-403.117	-403.109664	-403.10872	-403.148551	29.847	
C	-0.0173303946	 1.5068654775	 0.0627584041	-0.145213
O	 1.4206519684	 1.4767497173	-0.1284169386	-0.299979
C	 1.3895098473	 0.0767780416	-0.5217639043	 0.08155
C	 2.4681241388	-0.795525266	 0.1191928244	-0.227386
C	 2.0777471369	-1.3087388309	 1.512649612	-0.199989
C	 0.6929633497	-1.9861692948	 1.4786240417	-0.228666
C	-0.3774812907	-0.9655372859	 1.1094461734	-0.068393
N	-1.0929830427	-0.9635055099	-0.1910940869	-0.409313
C	-0.0287091722	-0.0117745118	 0.0370904642	 0.279704
H	-0.3025583511	 2.0054920865	 0.9952772021	 0.107321
H	-0.5320302207	 1.9824843424	-0.7835409325	 0.102506
H	 1.4334318161	 0.0038394505	-1.619563862	 0.069123
H	 2.6548310828	-1.6543488656	-0.5392020086	 0.094571
H	 3.3989489023	-0.2186454149	 0.1525865111	 0.116009
H	 2.8373854695	-2.0097344001	 1.8742822068	 0.094642
H	 2.0514451453	-0.4737218035	 2.2232703967	 0.110681
H	 0.7059472416	-2.8086622331	 0.7502478336	 0.094442
H	 0.4603469003	-2.4374385037	 2.4477350791	 0.10494
H	-1.0055935846	-0.6177321477	 1.926763777	 0.096523
H	-0.7746245023	-1.7263901179	-0.7864943932	 0.226927
120.6731	194.8653	229.9113	320.0728	369.0875	434.7823	442.5969	481.3746	575.9687	630.2919	782.9597	799.5746	814.8889	844.6874	899.2293	936.1856	958.3756	972.7023	982.2252	1005.2179	1048.1632	1081.2124	1081.7184	1094.0841	1119.64	1139.0596	1157.7115	1204.6769	1226.3633	1254.7857	1284.1501	1294.9013	1324.9248	1349.4515	1355.8824	1368.0057	1375.9019	1398.0589	1465.0311	1481.974	1489.7301	1495.4422	1520.2082	2974.1635	3007.2119	3014.2737	3022.956	3034.4464	3069.2912	3072.8333	3078.8402	3081.4107	3129.5105	3475.2058
C1OC2CCCC3NC123	C1O[C@H]2CCC[C@@H]3N[C@]123	
InChI=1S/C7H11NO/c1-2-5-7(8-5)4-9-6(7)3-1/h5-6,8H,1-4H2	InChI=1S/C7H11NO/c1-2-5-7(8-5)4-9-6(7)3-1/h5-6,8H,1-4H2/t5-,6-,7-/m0/s1
