19
gdb 76905	2.47013	1.74681	1.49748	2.5103	69.39	-0.257	0.0565	0.3136	966.1234	0.162043	-460.151656	-460.144253	-460.143309	-460.18331	30.074	
O	 0.3476903757	 1.2319636206	-0.2577437308	-0.449928
C	 0.0979019368	-0.1460988389	-0.0506642994	 0.06918
C	 0.2484547662	-0.5553391531	 1.4503945529	 0.127894
O	 0.9048313319	 0.3788248444	 2.2607839985	-0.437651
C	-1.303120626	-0.6763883299	 1.5661157478	-0.094945
C	-2.0288163869	 0.5877330799	 2.0474245786	-0.109745
O	-2.1839024311	 1.43680897	 0.8961188806	-0.274474
C	-2.3988350374	 0.5661913922	-0.2212282336	-0.12077
C	-1.4093619865	-0.5691540559	 0.0051113045	-0.07097
H	-0.3869905548	 1.7200341252	 0.1522226348	 0.298908
H	 0.7267226179	-0.6851441977	-0.762456183	 0.088367
H	 0.7226957915	-1.5373693245	 1.5650209289	 0.073711
H	 1.1210708023	 1.1189632289	 1.6730629298	 0.288415
H	-1.676590401	-1.5773108732	 2.0545028516	 0.075055
H	-3.0179349389	 0.3378487765	 2.4545689338	 0.09899
H	-1.4594242054	 1.1452451458	 2.7938427312	 0.131207
H	-3.4341584976	 0.1939650103	-0.2314247239	 0.10372
H	-2.2206071573	 1.1468268528	-1.1297511014	 0.126002
H	-1.6447364692	-1.4809646233	-0.5444946208	 0.077033
99.9813	230.8187	259.9462	274.4974	330.3601	417.1242	482.918	524.5227	546.222	641.2943	742.2371	761.6004	789.8528	807.556	847.8341	877.346	919.5662	923.5332	986.2804	1015.467	1027.5023	1054.6704	1090.8652	1121.8285	1158.5411	1162.1257	1203.6391	1217.2994	1244.486	1259.8078	1273.3666	1285.2668	1312.3527	1331.3271	1340.6501	1370.1795	1397.4762	1420.4541	1466.1395	1499.8916	1513.9205	2996.3787	3012.1841	3029.0014	3086.1803	3098.858	3102.8294	3114.7889	3116.7181	3637.1593	3703.9715
OC1C(O)C2COCC12	O[C@H]1[C@@H](O)[C@H]2COC[C@@H]12	
InChI=1S/C6H10O3/c7-5-3-1-9-2-4(3)6(5)8/h3-8H,1-2H2	InChI=1S/C6H10O3/c7-5-3-1-9-2-4(3)6(5)8/h3-8H,1-2H2/t3-,4+,5-,6+
