17
gdb 81575	3.29269	1.22929	0.99834	5.0744	70.	-0.2307	0.0305	0.2612	1167.743	0.136994	-455.098751	-455.090605	-455.089661	-455.132136	31.103	
N	 0.7617504133	 0.2990111596	-0.7640996192	-0.525474
C	-0.0482394987	 0.1314025797	 0.3130613363	 0.345342
O	 0.1110355091	 0.7191454141	 1.3691844961	-0.36905
C	-1.2003154059	-0.8594007697	 0.1679725889	-0.032563
C	-2.1910224254	-0.8160097179	-1.0370824248	-0.101931
N	-1.0961293146	-1.4145145501	-1.9000694045	-0.341637
C	-1.0745492178	-2.2109609713	-0.6044820852	-0.075987
C	-2.6203057918	-2.2762420854	-0.6604271827	 0.130095
O	-3.2871106821	-2.5692557065	 0.530647906	-0.422366
H	 1.4883453827	 0.9928621838	-0.701490957	 0.249364
H	 0.5159751419	-0.146242669	-1.6375403226	 0.267049
H	-1.6836279611	-0.9427620377	 1.1377242476	 0.115862
H	-2.7992025429	 0.0219439656	-1.3813144789	 0.090606
H	-1.5070736649	-1.9792062432	-2.6509765169	 0.211936
H	-0.362725208	-3.0196780989	-0.4375786838	 0.096288
H	-3.0118978435	-2.8519096599	-1.5128077755	 0.069554
H	-4.2274800503	-2.4039951433	 0.4085332661	 0.292912
32.604	179.6899	188.0908	256.7254	304.5966	354.3863	388.0141	403.2286	491.5424	609.2317	633.5861	668.6608	750.6312	783.1784	862.0245	875.0944	890.1685	905.4552	938.6797	1002.3114	1067.5272	1113.5347	1116.5083	1130.0399	1146.2247	1162.5063	1191.5808	1208.9969	1243.1568	1270.2883	1291.5556	1314.0673	1370.1861	1373.357	1433.6329	1584.8326	1786.5149	2991.2579	3106.3426	3119.3424	3164.2078	3376.276	3530.2471	3703.0197	3820.0985
NC(=O)C1C2NC1C2O	NC(=O)[C@H]1[C@H]2N[C@@H]1[C@H]2O	
InChI=1S/C5H8N2O2/c6-5(9)1-2-4(8)3(1)7-2/h1-4,7-8H,(H2,6,9)	InChI=1S/C5H8N2O2/c6-5(9)1-2-4(8)3(1)7-2/h1-4,7-8H,(H2,6,9)/t1-,2+,3-,4-
