23
gdb 86904	4.44434	0.74853	0.72789	1.4378	87.	-0.2385	0.0915	0.3301	1693.306	0.205342	-388.270082	-388.260545	-388.259601	-388.305543	35.66	
C	 0.2987685106	 1.3915922245	 0.3303618167	-0.397468
C	 0.0141582951	-0.041712447	-0.0689411945	 0.181676
C	 0.6486538488	-0.5993994375	-1.3622834428	-0.329851
C	 1.227733897	-1.6934631961	-0.4412971976	 0.173983
C	 2.7327207925	-1.9047879332	-0.4082756021	-0.235568
C	 3.1634383075	-2.8002123246	 0.7340922048	 0.042934
C	 3.1935784149	-4.2992590264	 0.5636305977	-0.257349
C	 4.4833094978	-3.5242600881	 0.6905384393	-0.279583
O	 0.7431836597	-0.9999692899	 0.7375751545	-0.317454
H	 1.3680683588	 1.6110254087	 0.2521111112	 0.117106
H	-0.2500270356	 2.0854817826	-0.3161968052	 0.113851
H	-0.0130948812	 1.5695721838	 1.3645392519	 0.126212
H	-1.0659038932	-0.2412435048	-0.0080047272	 0.069567
H	-0.0354524085	-0.9255314016	-2.1470395253	 0.103775
H	 1.4095393408	 0.0567699879	-1.7942725689	 0.101979
H	 0.7177393704	-2.6622722867	-0.54647799	 0.0703
H	 3.0469412228	-2.3410925114	-1.3668152453	 0.088894
H	 3.2216654101	-0.9251780706	-0.3256968279	 0.093954
H	 2.8458918406	-2.4396210596	 1.7079865549	 0.100761
H	 2.8815423399	-4.9228456369	 1.3940716838	 0.111012
H	 2.9435814925	-4.7056335622	-0.4116170817	 0.105234
H	 5.0947921357	-3.4113174644	-0.1992151102	 0.106199
H	 5.053124843	-3.6176396064	 1.6085532137	 0.109836
43.069	62.9348	96.4845	139.6512	232.189	292.595	326.7206	335.5118	415.5854	424.1469	481.7268	685.3584	773.3054	803.1061	819.367	840.2189	866.2167	909.7217	914.9521	920.659	955.8288	972.9486	1006.9797	1056.9368	1067.3371	1077.2193	1104.3149	1126.2065	1140.8537	1149.5754	1172.6507	1199.4848	1200.3412	1226.7226	1249.0662	1259.7813	1291.7553	1306.5877	1344.6669	1378.8385	1399.2906	1412.4424	1423.2007	1466.6156	1472.8781	1482.2823	1490.809	1496.7189	1507.3076	2987.5896	2994.4166	3008.7991	3031.5417	3051.214	3063.2504	3103.8883	3111.2071	3125.362	3125.5832	3130.6086	3156.224	3203.2323	3218.7595
CC1CC(CC2CC2)O1	C[C@H]1C[C@@H](CC2CC2)O1	
InChI=1S/C8H14O/c1-6-4-8(9-6)5-7-2-3-7/h6-8H,2-5H2,1H3	InChI=1S/C8H14O/c1-6-4-8(9-6)5-7-2-3-7/h6-8H,2-5H2,1H3/t6-,8-/m0/s1
