16
gdb 125751	4.01645	0.97602	0.79287	2.598	76.81	-0.2528	-0.0055	0.2473	1394.4362	0.122618	-400.721527	-400.712795	-400.711851	-400.755802	31.497	
C	-0.0986462278	 1.5061138594	 0.0693671178	-0.494107
C	 0.1156229038	 0.0266549197	 0.0757758612	 0.390155
N	 1.0352146597	-0.5080982975	-0.6927812459	-0.202908
O	 0.9778150765	-1.8839667833	-0.4518981953	-0.218204
C	 0.0201590422	-2.1290239844	 0.4582453226	 0.455575
C	-0.1716433456	-3.569035903	 0.830820949	-0.483425
C	-1.2220968618	-3.7723167323	 1.8202797878	 0.310799
C	-2.0866096489	-3.945233356	 2.635363631	-0.435258
C	-0.5685340302	-0.9675840121	 0.838115955	-0.408468
H	 0.062517342	 1.9286732879	 1.0664756768	 0.138428
H	 0.5925836233	 1.9820775938	-0.6285441091	 0.150478
H	-1.1231966505	 1.7513347709	-0.2288280396	 0.138428
H	-0.3953405156	-4.1448373785	-0.0773888764	 0.163754
H	 0.7798157996	-3.9692626442	 1.206287858	 0.163752
H	-2.8502158499	-4.1040218864	 3.3561446537	 0.20443
H	-1.3656948968	-0.838588604	 1.5501997634	 0.12657
40.1037	105.9292	132.6107	167.4775	261.4151	321.8104	340.941	380.0128	445.9838	625.1013	636.4511	638.5116	663.7256	675.3611	761.0228	819.5083	933.5783	956.5442	974.8782	985.1397	1030.0875	1047.3654	1067.0473	1146.3481	1221.0576	1240.0365	1357.655	1407.4095	1450.5828	1459.3158	1480.0214	1482.2612	1535.0152	1649.9664	2249.935	3017.5819	3042.5464	3042.8745	3099.0578	3140.3195	3285.2325	3505.2506
CC1=NOC(CC#C)=C1	Cc1noc(CC#C)c1	
InChI=1S/C7H7NO/c1-3-4-7-5-6(2)8-9-7/h1,5H,4H2,2H3	InChI=1S/C7H7NO/c1-3-4-7-5-6(2)8-9-7/h1,5H,4H2,2H3
