25
gdb 58271	2.85025	0.8319	0.73589	2.4909	89.73	-0.2416	-0.0075	0.2341	1701.7515	0.225087	-389.528425	-389.516676	-389.515731	-389.566202	42.298	
C	 0.1117818419	 1.5243846719	-0.1479277938	-0.398817
C	 0.0075223844	 0.0005292272	 0.0276512332	 0.035544
C	 0.6593675324	-0.3928916449	 1.3637149852	-0.395846
C	-1.4543954929	-0.508189089	-0.0832080552	 0.063545
C	-2.1915937407	 0.0475221509	-1.3132245445	-0.415855
C	-1.525496671	-2.0438222656	-0.1047286874	-0.316307
C	-2.9035629126	-2.6233568811	 0.199463086	 0.385709
C	-3.0874228682	-4.099039971	-0.1139673095	-0.473174
O	-3.7966715133	-1.9607469155	 0.6769507973	-0.298612
H	 1.1443686264	 1.8565681577	 0.0011889672	 0.107197
H	-0.197360047	 1.8519271	-1.1431733534	 0.115422
H	-0.5119700972	 2.0474340165	 0.5872853091	 0.113353
H	 0.5857870017	-0.4675337025	-0.7841154362	 0.064058
H	 0.1070430017	 0.0398937249	 2.2063508715	 0.116404
H	 0.7039676389	-1.4746737373	 1.5171283134	 0.10883
H	 1.6868611137	-0.0185717062	 1.4154744962	 0.110837
H	-1.9981716654	-0.1729574651	 0.8094849587	 0.08995
H	-3.1917232981	-0.3868913817	-1.3860729029	 0.126087
H	-2.3133325693	 1.1317564421	-1.2629625353	 0.117509
H	-1.6481101546	-0.1868031805	-2.2375248199	 0.1029
H	-1.1804424888	-2.4379394061	-1.0711655166	 0.106819
H	-0.8523014083	-2.4907787196	 0.6389708222	 0.119149
H	-2.2580738889	-4.6937551368	 0.2835393815	 0.132808
H	-4.033872839	-4.4524975668	 0.297000477	 0.141237
H	-3.0894691357	-4.2449350714	-1.2007979136	 0.141253
41.9463	56.3723	69.3428	123.6311	153.4798	197.9641	220.6424	238.4031	272.5974	327.4975	360.2601	365.7278	410.8052	446.2076	477.9113	501.1051	593.4506	787.9514	808.4441	843.3545	889.7452	927.7918	944.067	965.058	967.4522	988.5753	999.5342	1078.6143	1132.4143	1154.6242	1172.0104	1186.1646	1201.0141	1245.9735	1286.1392	1337.4248	1353.0253	1373.9621	1378.2674	1384.9398	1402.8447	1409.165	1423.7142	1446.3929	1464.4841	1477.0802	1486.3295	1491.8707	1498.4009	1505.9725	1509.4645	1523.8089	1808.5845	2983.2126	3013.7494	3024.4472	3027.3733	3032.5738	3033.742	3036.1139	3049.78	3089.1949	3096.2619	3096.8109	3105.1553	3105.6261	3116.604	3128.1189	3151.0449
CC(C)C(C)CC(C)=O	CC(C)[C@@H](C)CC(=O)C	
InChI=1S/C8H16O/c1-6(2)7(3)5-8(4)9/h6-7H,5H2,1-4H3	InChI=1S/C8H16O/c1-6(2)7(3)5-8(4)9/h6-7H,5H2,1-4H3/t7-/m0/s1
