23
gdb 76865	2.33198	1.65669	1.32993	0.1659	89.3	-0.2303	0.0265	0.2568	1109.6474	0.207546	-351.163946	-351.155444	-351.1545	-351.196627	34.251	
C	 0.4155131878	 1.7985199448	-0.429793486	-0.408955
C	 0.0529043704	 0.3216870483	-0.2990488257	-0.00037
C	 1.0046353952	-0.722742475	-0.987122389	 0.026483
C	 2.0739579928	-0.256401035	-1.966624594	-0.411983
C	 1.4370783865	-1.2363074965	 0.4247515094	-0.076641
C	 2.6913083947	-0.6581909025	 1.0260745696	-0.073752
C	 2.4378613897	 0.2255015203	 1.9927610196	-0.063765
C	 0.9574473181	 0.4262956743	 2.2293740341	-0.274803
C	 0.3067614628	-0.379185295	 1.0846091478	-0.022911
H	 1.4324150898	 2.0117968779	-0.0886835525	 0.123284
H	 0.3417569982	 2.1216614308	-1.4737486152	 0.110063
H	-0.2709903534	 2.4232840171	 0.1521553845	 0.110198
H	-0.9840474513	 0.1994002833	-0.6286759062	 0.062863
H	 0.3967867216	-1.4923318299	-1.4753883421	 0.064209
H	 2.7317682692	 0.4987441126	-1.5261410634	 0.118615
H	 2.7024805715	-1.0969683729	-2.2827030522	 0.108371
H	 1.6257808318	 0.1743650414	-2.8689008516	 0.109983
H	 1.3983576931	-2.3256077531	 0.5420112646	 0.062378
H	 3.6848577098	-0.9588161274	 0.7093335737	 0.087901
H	 3.1938489129	 0.7434088945	 2.5745400738	 0.087242
H	 0.6610914258	 0.0460859701	 3.2168743446	 0.098324
H	 0.6736164944	 1.4856416913	 2.2181792979	 0.102272
H	-0.5654864314	-0.9429927094	 1.4202172784	 0.060996
76.5825	185.7891	224.9881	241.2844	261.3585	276.9356	348.1081	447.7909	476.7479	493.7738	619.8754	721.8116	746.1794	773.1038	779.8062	828.7866	857.9629	897.7159	941.3619	969.2641	973.0598	984.8881	996.209	1019.5114	1034.6305	1088.142	1113.0896	1129.9295	1144.9882	1167.8322	1178.7071	1208.6449	1234.3744	1258.3062	1279.9373	1304.8106	1312.4399	1335.8943	1359.2074	1369.3081	1389.2242	1408.2218	1413.9369	1482.2347	1490.4871	1495.7757	1504.0088	1513.8643	1676.5	3008.8984	3021.9885	3026.42	3031.1153	3032.9945	3046.5661	3048.6942	3085.395	3087.1939	3090.7521	3104.2861	3113.5314	3170.6854	3196.4379
CC1C(C)C2C=CCC12	C[C@H]1[C@@H](C)[C@H]2C=CC[C@@H]12	
InChI=1S/C9H14/c1-6-7(2)9-5-3-4-8(6)9/h3-4,6-9H,5H2,1-2H3	InChI=1S/C9H14/c1-6-7(2)9-5-3-4-8(6)9/h3-4,6-9H,5H2,1-2H3/t6-,7+,8-,9+/m1/s1
