19
gdb 76267	2.45061	1.53438	1.01355	5.698	80.61	-0.2132	0.0016	0.2148	1186.0594	0.159571	-419.266731	-419.25736	-419.256416	-419.30054	34.886	
C	 0.0023942972	 1.6109774245	 0.0736580958	-0.401393
C	 0.0630148624	 0.0776085684	-0.0072250551	-0.056285
N	 0.8376630217	-0.3973798414	-1.13337025	-0.097096
C	 0.4282918263	-0.2527460292	-2.5067718013	-0.347408
C	 1.8550778519	-1.2662478425	-0.7432241849	 0.431041
O	 2.6010588021	-1.846771049	-1.5093374763	-0.416363
C	 1.8131039553	-1.3123825477	 0.7282917966	-0.371311
C	 0.785972757	-0.5616568995	 1.1687477825	 0.367047
N	 0.3152739871	-0.3757960087	 2.4433183157	-0.586923
H	 1.0100601423	 2.0278291484	 0.1556781593	 0.134873
H	-0.4718411502	 2.0230266952	-0.8213629843	 0.131358
H	-0.5897853029	 1.9438470033	 0.933222981	 0.108552
H	-0.966954177	-0.3145846228	-0.0522227216	 0.097104
H	 0.4291747614	 0.7953068469	-2.8309697068	 0.114942
H	 1.1491591923	-0.8074629427	-3.111125144	 0.16503
H	-0.5754244889	-0.6658932257	-2.6829093548	 0.110264
H	 2.5129518472	-1.8923403658	 1.31137077	 0.101476
H	 0.9392438691	-0.6208311576	 3.1966863239	 0.260713
H	-0.2167203943	 0.461626566	 2.6213389443	 0.254379
100.6523	106.3873	169.79	195.1908	234.1737	265.2871	285.3673	345.7678	357.4015	412.6377	503.8563	533.963	569.3687	640.2435	683.2194	738.9378	773.2083	824.384	828.2095	964.8359	1056.8766	1073.7698	1099.2918	1105.7052	1151.9377	1162.6496	1232.0554	1260.1549	1306.9142	1347.7657	1394.0884	1403.2418	1415.1488	1446.026	1487.5473	1493.5081	1502.1859	1523.0381	1642.2901	1698.5707	1796.2244	2963.1312	2995.549	3035.8599	3046.2803	3103.3865	3124.9663	3133.1595	3243.6149	3581.0911	3684.8083
CC1N(C)C(=O)C=C1N	C[C@H]1N(C)C(=O)C=C1N	
InChI=1S/C6H10N2O/c1-4-5(7)3-6(9)8(4)2/h3-4H,7H2,1-2H3	InChI=1S/C6H10N2O/c1-4-5(7)3-6(9)8(4)2/h3-4H,7H2,1-2H3/t4-/m1/s1
