19
gdb 14424	3.88661	1.89419	1.6811	1.6097	75.01	-0.229	0.097	0.326	876.7714	0.166025	-327.872379	-327.864954	-327.86401	-327.903526	29.194	
C	-0.0444739391	 1.5582656189	 0.0125178308	-0.42337
C	 0.0773368198	 0.0509172704	-0.1216046533	 0.09769
C	 0.7818973708	-0.6313580291	-1.3140751104	-0.144214
C	 2.2143312665	-0.0391877742	-1.2909212596	-0.249288
C	 2.3436790306	-0.7049262642	 0.0761154521	-0.089003
N	 1.021669752	-0.6514832248	 0.8158850903	-0.198716
C	 1.2718599575	-1.6834530264	-0.230110331	 0.367351
C	 1.1123160746	-3.1541508146	-0.0511160824	-0.531912
H	 0.9168392594	 2.0663018106	-0.0963174836	 0.121009
H	-0.7309986606	 1.9579195756	-0.7422987364	 0.113204
H	-0.4430356714	 1.8118398357	 1.0002243434	 0.12614
H	-0.9034381921	-0.4108428722	 0.0403535113	 0.075498
H	 0.2732463302	-0.8289872589	-2.2569501521	 0.065811
H	 2.85961582	-0.5409831699	-2.017184734	 0.103177
H	 2.3359604154	 1.0441430724	-1.3858819157	 0.093279
H	 3.2218078143	-0.8222393703	 0.6981353964	 0.092184
H	 0.0560138627	-3.4464205858	-0.0532934933	 0.124227
H	 1.6161182038	-3.7099789931	-0.8496902145	 0.12173
H	 1.5437254855	-3.46200239	 0.9064391521	 0.135204
157.9881	187.068	205.6737	228.7369	308.5919	322.0773	487.8333	559.767	634.8081	684.852	710.3601	792.5677	825.9821	872.7362	895.4934	928.9121	970.1848	988.1021	1024.415	1045.3425	1073.3242	1098.56	1111.9476	1115.3734	1128.6628	1167.7743	1179.8989	1226.2092	1248.9872	1284.2681	1304.7554	1390.1601	1400.8504	1410.837	1451.2327	1480.8568	1485.0927	1491.0445	1493.7004	1514.2517	3026.2577	3034.7984	3039.674	3050.3413	3086.4645	3100.2993	3100.9626	3106.3739	3120.4921	3123.2257	3198.4813
CC1C2CC3N1C23C	C[C@H]1[C@H]2C[C@H]3N1[C@@]23C	
InChI=1S/C7H11N/c1-4-5-3-6-7(5,2)8(4)6/h4-6H,3H2,1-2H3	InChI=1S/C7H11N/c1-4-5-3-6-7(5,2)8(4)6/h4-6H,3H2,1-2H3/t4-,5+,6+,7-,8?/m0/s1
