15
gdb 9501	3.07069	1.72639	1.51839	4.0028	61.82	-0.2755	0.0069	0.2825	883.6186	0.117949	-399.794933	-399.786987	-399.786042	-399.826954	29.509	
O	 0.4532501438	 0.9060354825	-0.6590825876	-0.422093
C	 0.1491743581	-0.1947412117	 0.1268140316	 0.143988
C	 0.0462089864	-0.0754435563	 1.6750503905	-0.27272
C	-1.1688184536	-1.0404870597	 1.6263997945	-0.271712
C	-1.3414868573	-0.6961570497	 0.1171738408	 0.217695
O	-2.1335613361	 0.4586007047	-0.0988239119	-0.474414
C	-1.7187958382	-1.7791147355	-0.7922178404	 0.222446
N	-2.0212751202	-2.6494915207	-1.4908288093	-0.333517
H	-0.2958597157	 1.5126485476	-0.5980682521	 0.298586
H	 0.8220410742	-1.0063199571	-0.1609955655	 0.114391
H	 0.9165124115	-0.3811642654	 2.2567310648	 0.114357
H	-0.2488657315	 0.9342023725	 1.9686573255	 0.117615
H	-0.8894762325	-2.0863607466	 1.7705442675	 0.130258
H	-2.032299472	-0.8084106738	 2.252668527	 0.114897
H	-3.0600730067	 0.2400703595	 0.0491455246	 0.300224
117.0956	146.1155	195.2173	246.5525	262.8368	372.8887	376.0544	425.7444	504.0947	534.5606	590.6177	627.8837	728.7474	783.7075	914.7073	927.0005	959.238	984.0757	1092.2386	1121.2957	1156.655	1169.2373	1203.5128	1237.2995	1259.8844	1291.0349	1319.7117	1364.2585	1442.7598	1469.6058	1488.2073	2347.1516	3073.923	3081.4164	3090.1895	3128.9013	3144.8977	3779.898	3814.1973
OC1CCC1(O)C#N	O[C@H]1CC[C@]1(O)C#N	
InChI=1S/C5H7NO2/c6-3-5(8)2-1-4(5)7/h4,7-8H,1-2H2	InChI=1S/C5H7NO2/c6-3-5(8)2-1-4(5)7/h4,7-8H,1-2H2/t4-,5-/m0/s1
