18
gdb 92071	2.85986	1.53238	1.09373	3.3831	71.18	-0.2441	0.0112	0.2553	1098.3743	0.149497	-439.103936	-439.095923	-439.094979	-439.136562	30.818	
N	 0.0819713862	 1.4160692179	 0.327954928	-0.509113
C	-0.0392102795	 0.0101941547	-0.0250440223	-0.110773
C	-1.5081267868	-0.4219053331	-0.1517669183	-0.239882
C	-1.5572094511	-1.9180456472	-0.4149983209	-0.060507
C	-1.8777026651	-2.4710903585	-1.7885145157	-0.311353
C	-0.4624135683	-2.4552398005	-1.2927801671	 0.106176
O	 0.4344017181	-1.5465052594	-1.9009934196	-0.224407
C	 0.7271654761	-0.35696812	-1.3083296986	 0.396418
O	 1.5438275276	 0.3618477266	-1.8164772614	-0.330106
H	 1.0636848126	 1.6768191769	 0.2724725176	 0.242091
H	-0.3676450095	 1.9744549442	-0.3948991133	 0.228317
H	 0.4104503339	-0.5822662094	 0.7850198349	 0.112502
H	-2.0396849397	-0.1592179574	 0.7659078177	 0.125749
H	-1.9836789041	 0.1408294675	-0.9644003478	 0.108455
H	-1.8261105098	-2.5360217662	 0.4356685425	 0.102198
H	-2.3860364001	-3.4256635957	-1.8628716465	 0.122518
H	-2.1253328303	-1.7581238585	-2.5680000466	 0.129633
H	 0.0332402898	-3.3887141017	-1.0488708224	 0.112083
93.3391	116.5971	183.9085	290.0586	306.8473	343.9698	423.8852	444.9028	465.7717	561.5817	666.9652	712.7713	765.7462	821.5138	833.5681	900.6651	926.1453	967.2123	996.6183	1031.364	1037.1205	1059.685	1106.9344	1125.2683	1150.0437	1175.0792	1187.5429	1213.3452	1243.5171	1251.0086	1336.4039	1349.033	1375.8506	1402.8678	1408.8436	1477.6938	1499.9095	1673.0409	1841.5519	3005.562	3036.4256	3099.4444	3135.7987	3156.2389	3167.8209	3226.9329	3478.0967	3547.0532
NC1CC2CC2OC1=O	N[C@H]1C[C@H]2C[C@H]2OC1=O	
InChI=1S/C6H9NO2/c7-4-1-3-2-5(3)9-6(4)8/h3-5H,1-2,7H2	InChI=1S/C6H9NO2/c7-4-1-3-2-5(3)9-6(4)8/h3-5H,1-2,7H2/t3-,4-,5+/m0/s1
