17
gdb 27790	2.03317	1.81584	0.96583	2.186	81.21	-0.207	0.0014	0.2084	1191.3909	0.138129	-414.281222	-414.272628	-414.271684	-414.314216	32.981	
C	 0.0179764047	 1.4960318044	-0.006350267	-0.468198
C	-0.0153489687	-0.0081219004	 0.0258787678	 0.336071
C	-1.2094966857	-0.709630913	-0.0187982907	-0.266236
C	-1.1218213753	-2.1131087836	 0.0039823393	 0.393663
N	-2.2420433492	-2.9038026937	-0.0038722154	-0.568949
N	 0.0508163309	-2.7464440481	 0.0702557493	-0.38474
C	 1.1371484078	-1.9612659113	 0.1289443201	 0.41478
N	 2.3394471702	-2.6033464463	 0.2586932574	-0.557409
H	 2.3540027942	-3.5801875844	 0.0182643039	 0.254219
H	 3.1565932169	-2.0574932036	 0.0421963481	 0.256378
N	 1.174961873	-0.6234577604	 0.0995310384	-0.38574
H	 0.619912775	 1.840408333	-0.8533045657	 0.137183
H	-0.983705143	 1.9248906021	-0.0850783298	 0.114232
H	 0.4972475435	 1.87989989	 0.8999845491	 0.139936
H	-2.1656536487	-0.2036084277	-0.0722598143	 0.077132
H	-3.0952989301	-2.513098328	-0.3671658743	 0.253097
H	-2.0787628457	-3.8770400789	-0.2094826464	 0.254583
75.5452	178.0813	201.4221	222.2719	293.1908	323.7791	401.1881	419.314	473.7502	493.5162	523.4242	547.9612	568.4036	609.7168	650.6871	728.1861	806.9757	824.9132	969.6036	978.309	1007.0215	1057.1873	1062.7974	1110.7269	1171.5399	1217.4375	1315.8759	1400.9069	1438.3681	1469.8424	1473.8934	1485.9619	1507.4629	1608.6143	1617.6209	1634.9937	1647.5648	3041.5555	3102.5401	3127.3939	3195.5496	3591.9146	3606.1038	3713.8748	3734.5991
CC1=CC(N)=NC(=[NH2+])[N-]1	Cc1cc(N)nc(N)n1	
InChI=1S/C5H7N4/c1-3-2-4(6)9-5(7)8-3/h2H,1H3,(H3-,6,7,8,9)/q-1/p+1	InChI=1S/C5H8N4/c1-3-2-4(6)9-5(7)8-3/h2H,1H3,(H4,6,7,8,9)
