17
gdb 110433	2.70601	1.63239	1.24282	3.5281	71.93	-0.2362	0.0073	0.2434	1033.1335	0.13552	-421.783054	-421.775316	-421.774372	-421.815739	29.21	
C	 0.0860167204	 1.1804639184	 0.3639167188	-0.244246
O	 0.0010832326	-0.1188619286	-0.1863261813	-0.247434
C	-1.2759809513	-0.6750767645	-0.1094041029	 0.165569
C	-1.41750061	-2.1024675814	-0.6186488949	-0.121808
C	-2.3858002317	-2.4387323593	 0.4700754241	-0.08798
C	-0.9723913576	-3.0512696499	 0.503246497	-0.195734
C	-0.6819922009	-2.191253548	 1.6967323893	 0.468173
O	-0.0392456666	-2.329312063	 2.6968718833	-0.3415
C	-1.7935971268	-1.2083283169	 1.2665071061	-0.257299
H	 1.1081488681	 1.5310050149	 0.207432587	 0.13447
H	-0.6097670447	 1.874669368	-0.1322929543	 0.105364
H	-0.1273316373	 1.1825193156	 1.4421884353	 0.120245
H	-2.02762046	-0.0198892835	-0.5761573121	 0.074128
H	-1.409141739	-2.4452318219	-1.6452281424	 0.104637
H	-3.3423578905	-2.9345078319	 0.4967394437	 0.117738
H	-0.6788032746	-4.0713343761	 0.2987300349	 0.11319
H	-2.3072338202	-0.5813055617	 1.9893046985	 0.092489
67.419	131.882	176.8789	190.1596	298.6235	422.2056	437.8281	563.225	616.6559	720.4076	777.9676	781.8347	826.0023	833.5277	857.2051	890.7943	925.8736	1013.811	1022.4537	1030.0565	1046.384	1054.7052	1085.8247	1137.4101	1146.9189	1160.0041	1181.0818	1184.6384	1229.2996	1277.6519	1312.4022	1347.5812	1387.1632	1482.3044	1491.1887	1506.0763	1889.046	2979.8316	2990.5661	3036.2762	3124.7591	3168.6016	3200.5136	3223.5634	3257.6368
COC1C2C3C2C(=O)C13	CO[C@H]1[C@@H]2[C@H]3[C@@H]2C(=O)[C@@H]13	
InChI=1S/C7H8O2/c1-9-7-4-2-3(4)6(8)5(2)7/h2-5,7H,1H3	InChI=1S/C7H8O2/c1-9-7-4-2-3(4)6(8)5(2)7/h2-5,7H,1H3/t2-,3+,4-,5+,7+/m1/s1
