21
gdb 107014	2.98002	1.22026	1.03791	2.1675	78.02	-0.2508	0.0668	0.3176	1240.0644	0.181627	-424.20074	-424.191251	-424.190307	-424.234928	35.992	
C	 0.1173865448	 1.5073011031	-0.2293622691	-0.370956
C	-0.0795088234	 0.0088799447	 0.04122973	-0.310359
C	 0.608923587	-0.4443896048	 1.2995128199	 0.397702
C	 2.0607668995	-0.8003225093	 1.3723784914	-0.352993
C	 1.0430507879	-1.8588059017	 1.741222385	-0.186683
C	 0.5142540504	-1.6161239395	 3.144282786	 0.092334
O	 1.4206135244	-1.675161337	 4.2381719346	-0.444613
C	 0.1031061402	-0.1583827787	 2.7270952917	 0.026959
O	 0.7390745331	 0.8581403899	 3.4565661566	-0.445869
H	 1.1770817535	 1.7439350544	-0.3681037783	 0.119309
H	-0.4217942831	 1.8193567551	-1.1291053368	 0.108394
H	-0.2460627039	 2.1090477958	 0.6096839057	 0.132289
H	-1.1528125417	-0.2120806769	 0.1149417651	 0.096809
H	 0.2957495328	-0.5740570655	-0.8095389528	 0.094099
H	 2.5514136376	-0.9630844633	 0.4178944873	 0.114361
H	 2.6967886602	-0.3340084923	 2.1204147976	 0.107107
H	 0.9734360492	-2.7927401144	 1.1952095949	 0.087699
H	-0.3476760862	-2.2369815986	 3.4002623349	 0.089011
H	 2.308912295	-1.7639374276	 3.8771529687	 0.292709
H	-0.9850833784	-0.0146192146	 2.7444288698	 0.067398
H	 1.1805320112	 0.4016558414	 4.1887626577	 0.285295
75.192	92.4889	159.8758	197.313	222.6357	267.581	279.4267	330.1887	354.4776	457.4987	515.0243	553.1716	600.7121	710.7544	742.1901	785.894	821.2632	850.0614	888.0141	963.8138	977.1512	992.7453	1009.1941	1038.8771	1081.7749	1082.9563	1101.677	1112.5495	1133.0661	1184.5066	1237.7808	1249.3556	1266.2083	1299.2009	1328.2177	1351.3414	1365.148	1395.504	1410.1923	1411.6734	1422.9352	1480.7631	1496.161	1500.5221	1506.7646	3011.2924	3016.3989	3036.745	3046.2954	3080.3175	3107.6972	3109.0561	3114.7542	3174.7717	3199.4468	3706.4627	3817.8638
CCC12CC1C(O)C2O	CC[C@]12C[C@H]1[C@@H](O)[C@H]2O	
InChI=1S/C7H12O2/c1-2-7-3-4(7)5(8)6(7)9/h4-6,8-9H,2-3H2,1H3	InChI=1S/C7H12O2/c1-2-7-3-4(7)5(8)6(7)9/h4-6,8-9H,2-3H2,1H3/t4-,5+,6+,7-/m0/s1
