18
gdb 35256	3.07467	1.0526	0.87578	3.8973	76.4	-0.2529	0.0236	0.2765	1319.5279	0.148128	-401.925199	-401.916619	-401.915675	-401.960042	30.641	
N	-0.216690379	-1.1587401064	 0.2220541336	-0.342666
C	-0.1418799199	-0.007012016	 0.1364659291	 0.288082
C	-0.0403445823	 1.4207159127	 0.0245692112	-0.178558
C	 0.5192746265	 2.2276400307	 1.1872817739	-0.302237
C	 1.3323311693	 2.0863182446	-0.0652024644	-0.016754
C	 2.5921761788	 1.2664931033	-0.086063277	-0.045155
C	 3.1894249867	 0.900318432	-1.4667696131	-0.086445
O	 4.4313811199	 1.5638669539	-1.1569808539	-0.268783
C	 3.9290368385	 2.0232926076	 0.111620155	-0.090286
H	-0.8412330739	 1.8740138198	-0.5492474572	 0.137061
H	 0.0368903751	 3.173951397	 1.401908594	 0.133732
H	 0.8346849351	 1.6691413596	 2.0613183452	 0.142736
H	 1.3497551678	 2.952827243	-0.7218985969	 0.107058
H	 2.4915932248	 0.4001621419	 0.5713087666	 0.102388
H	 3.328222197	-0.1681260886	-1.6644762854	 0.116612
H	 2.6808487277	 1.358732526	-2.3259481948	 0.098507
H	 3.8387166053	 3.1179118814	 0.1487290548	 0.097599
H	 4.5537936726	 1.6915533373	 0.9491603991	 0.107111
45.3787	51.4278	104.9316	167.992	236.9831	305.1177	351.8998	426.353	559.1194	621.0066	736.6078	776.5418	833.0171	861.3341	893.4714	919.6518	965.5219	985.5469	1005.9415	1041.8027	1051.1576	1080.7453	1095.8381	1123.4196	1141.3915	1157.6359	1162.1583	1200.9845	1248.4926	1251.9798	1309.1243	1310.603	1373.5248	1381.7678	1441.4442	1487.6092	1514.01	1539.1198	2351.2837	2999.1866	3010.9134	3051.8565	3063.1421	3089.5933	3140.5248	3144.8051	3173.2566	3235.3577
N#CC1CC1C1COC1	N#C[C@H]1C[C@H]1C1COC1	
InChI=1S/C7H9NO/c8-2-5-1-7(5)6-3-9-4-6/h5-7H,1,3-4H2	InChI=1S/C7H9NO/c8-2-5-1-7(5)6-3-9-4-6/h5-7H,1,3-4H2/t5-,7-/m1/s1
