20
gdb 120114	3.3496	0.91938	0.84953	2.7396	81.11	-0.258	0.0194	0.2775	1461.6579	0.170532	-403.12504	-403.116115	-403.115171	-403.15952	33.242	
C	-0.0664864648	 1.5265435325	-0.0555898115	-0.381672
C	-0.1219022594	 0.0075289802	-0.2364425414	-0.159824
C	 0.9844956022	-0.5221212558	-1.1588765686	-0.207632
C	 0.9452268582	-2.0282535925	-1.3050299928	-0.041768
C	 0.0944687245	-2.7649334114	-2.2794127823	 0.073096
O	-0.0456329554	-2.0041533979	-3.5094648318	-0.273838
C	 1.3279947314	-2.1301059357	-3.7405410686	 0.451032
N	 2.0104038016	-1.8040946029	-4.73896932	-0.555731
C	 1.5992486563	-2.8253724458	-2.4473919856	-0.242971
H	 0.8898730393	 1.8390272663	 0.3783518799	 0.115184
H	-0.1775883435	 2.043080743	-1.0152515681	 0.119219
H	-0.8635942525	 1.8784516408	 0.6064443951	 0.112816
H	-0.0457421524	-0.4819761808	 0.7437818279	 0.092443
H	-1.0975284491	-0.2815431988	-0.6467864933	 0.104419
H	 0.8938116021	-0.0543859997	-2.1442350328	 0.119621
H	 1.9662699977	-0.2304211652	-0.7645888022	 0.102732
H	 1.0463957309	-2.5728080102	-0.3659579291	 0.10108
H	-0.64419431	-3.5325355295	-2.092585675	 0.121079
H	 1.4283713072	-1.3717019227	-5.4584397047	 0.230012
H	 2.3126781555	-3.6198053841	-2.2858824549	 0.120704
61.8101	82.1772	96.5593	192.7328	236.0462	258.7344	363.5611	390.6926	438.2985	596.1622	682.5336	733.8703	747.6272	782.094	826.9932	859.0886	875.5821	901.1357	911.1637	946.7743	967.368	993.597	1035.6596	1049.0072	1058.0707	1078.414	1105.0824	1133.9998	1195.1028	1203.4396	1271.8376	1286.2338	1310.6737	1333.2993	1334.8874	1392.9427	1412.9945	1444.1717	1479.2801	1492.0094	1499.3068	1509.4824	1829.8295	3016.0915	3028.7503	3031.8723	3050.1032	3084.9398	3098.8545	3103.8508	3118.7794	3211.3068	3232.1453	3478.0559
CCCC1C2OC(=N)C12	CCC[C@H]1[C@H]2O[C]([NH])[C@@H]12	
InChI=1S/C7H11NO/c1-2-3-4-5-6(4)9-7(5)8/h4-6,8H,2-3H2,1H3	InChI=1S/C7H11NO/c1-2-3-4-5-6(4)9-7(5)8/h4-6,8H,2-3H2,1H3/t4-,5+,6-/m1/s1
