25
gdb 64258	2.45349	1.49857	1.4346	0.0809	90.98	-0.2735	0.0759	0.3494	1126.3032	0.23149	-352.36547	-352.356944	-352.356	-352.39762	35.861	
C	-0.2411426156	 1.5834797289	 0.100073282	-0.424416
C	-0.0031410712	 0.0647070918	 0.0079227585	 0.31713
C	-1.3687255234	-0.6419994385	 0.087618393	-0.427323
C	 0.6886918188	-0.3115113478	-1.3396240823	-0.235148
C	 2.2330180318	-0.4014720886	-1.2606360958	-0.214821
C	 2.6918992891	-0.8541570792	 0.1356264734	 0.007859
C	 1.6126500734	-1.7568966608	 0.8040512993	-0.242828
C	 0.8861300745	-0.428566638	 1.1784304557	-0.009279
C	 2.2947668143	 0.2307298874	 1.1684289328	-0.238298
H	 0.6656253834	 2.1616590361	-0.0974503076	 0.111653
H	-0.9940210601	 1.8959766886	-0.6319618629	 0.106466
H	-0.6070876361	 1.8667896763	 1.0938705346	 0.106281
H	-1.987476248	-0.4013915779	-0.7842793939	 0.106335
H	-1.2542318028	-1.7307187983	 0.1239775429	 0.109814
H	-1.92043594	-0.3332075098	 0.9828959234	 0.105314
H	 0.3094480664	-1.2897123986	-1.6535026233	 0.095225
H	 0.3837381289	 0.3878288725	-2.1258068333	 0.087198
H	 2.587874386	-1.0990025841	-2.0283491022	 0.089657
H	 2.6970216965	 0.5666776867	-1.4878393645	 0.092723
H	 3.7280702013	-1.2020602704	 0.1282463392	 0.053041
H	 1.0867050321	-2.4941629648	 0.1913007158	 0.087828
H	 2.0082495566	-2.2553847245	 1.6930611498	 0.092061
H	 0.3257019392	-0.4005617035	 2.1181781286	 0.049388
H	 2.8021462261	 0.0857500505	 2.1268389839	 0.088803
H	 2.3913668984	 1.2787995161	 0.8737214429	 0.085337
127.8502	218.2213	244.3272	270.2348	303.2235	338.9228	372.4727	395.5044	427.542	464.2115	471.2017	562.2566	691.4065	773.5202	818.8759	827.413	882.776	895.0319	898.1149	940.8933	943.3022	950.5419	965.8465	1001.7042	1017.7589	1030.305	1077.224	1090.0896	1099.9608	1113.3031	1140.7296	1175.4052	1198.1644	1239.7211	1253.651	1258.7468	1275.9605	1282.866	1295.3321	1337.5757	1343.6922	1373.7243	1378.5402	1398.7662	1421.9706	1480.0911	1484.1031	1486.575	1497.8711	1499.817	1504.1705	1512.3767	1523.8868	3019.2641	3019.7855	3027.3178	3035.0044	3043.2828	3049.757	3051.9648	3058.1901	3071.1606	3074.6851	3085.6028	3090.5724	3092.1252	3099.2959	3104.175	3112.2398
CC1(C)CCC2CC1C2	CC1(C)CC[C@@H]2C[C@H]1C2	
InChI=1S/C9H16/c1-9(2)4-3-7-5-8(9)6-7/h7-8H,3-6H2,1-2H3	InChI=1S/C9H16/c1-9(2)4-3-7-5-8(9)6-7/h7-8H,3-6H2,1-2H3/t7-,8+
