19
gdb 78475	3.31281	1.43193	1.41235	0.9078	73.43	-0.2426	0.0801	0.3227	1002.0633	0.162093	-423.001838	-422.994974	-422.99403	-423.032654	29.109	
O	-0.1523243304	 1.4569254559	-0.0060765761	-0.444686
C	 0.0246866465	 0.0685575939	-0.0286748843	 0.074508
C	-1.2617051599	-0.7035467719	 0.0636576997	-0.067962
C	-0.4671552762	-0.6791131473	-1.2437319359	-0.091765
C	-0.0607950828	-2.1572252914	-1.3951630069	 0.078509
C	-1.342540051	-2.8745297532	-0.9360286002	-0.218574
C	-1.2718874728	-2.197927766	 0.460718274	-0.066137
C	 0.1390071983	-2.6512669887	 0.8549709349	-0.092413
O	 0.8887937323	-2.5224321491	-0.3727597333	-0.283273
H	 0.5503018411	 1.8505824261	-0.5340987117	 0.28546
H	 0.9224326828	-0.2891547222	 0.4674437041	 0.106501
H	-2.1670623616	-0.1195442379	 0.1807154627	 0.095624
H	-0.795834788	-0.1145159107	-2.1097396495	 0.084183
H	 0.3626037913	-2.4298777769	-2.3619526785	 0.07498
H	-2.2260614422	-2.5833727452	-1.5083079451	 0.099833
H	-1.247625735	-3.964635997	-0.9119666167	 0.096935
H	-2.0446965228	-2.4667127107	 1.1809007522	 0.069669
H	 0.5985647912	-2.0328969761	 1.6331935282	 0.103375
H	 0.1521845593	-3.6973234215	 1.1886640123	 0.095233
210.2763	251.1327	305.8277	308.4852	398.6487	414.2761	480.2818	539.123	626.4034	762.5982	781.3704	830.1173	845.0419	883.5435	901.8971	926.7718	934.7396	952.8593	964.5639	989.8674	1000.4991	1026.761	1069.2598	1090.8724	1102.3579	1135.0094	1144.9358	1173.8841	1178.725	1209.517	1255.6708	1270.952	1281.4057	1291.4558	1299.9973	1317.5941	1339.9259	1381.7265	1457.8106	1489.8769	1532.6043	3012.3542	3057.2146	3064.2915	3116.6218	3120.5658	3121.7395	3143.4359	3166.6164	3182.5592	3806.5453
OC1C2C1C1CC2CO1	O[C@H]1[C@H]2[C@@H]1[C@@H]1C[C@H]2CO1	
InChI=1S/C7H10O2/c8-7-5-3-1-4(6(5)7)9-2-3/h3-8H,1-2H2	InChI=1S/C7H10O2/c8-7-5-3-1-4(6(5)7)9-2-3/h3-8H,1-2H2/t3-,4-,5+,6-,7-/m0/s1
