19
gdb 77705	3.06234	1.3121	1.09654	0.8041	76.2	-0.2444	0.0548	0.2992	1152.4774	0.157878	-422.972094	-422.963475	-422.962531	-423.005259	33.08	
O	 0.3866682395	 0.8716363464	 0.5739134253	-0.427504
C	 0.1564923585	-0.409759602	 0.0382637919	-0.036885
C	-1.3163589657	-0.818686263	-0.1038730467	 0.350445
C	-2.2617544108	-1.2600017377	 0.9682102842	-0.34442
C	-2.4567482804	 0.0744456494	 0.282957548	-0.304492
C	-1.0565457504	-1.3997372394	-1.5050788273	-0.415528
C	 0.2642706435	-0.6187344547	-1.4801932097	 0.429709
C	 0.7971728242	 0.3245593419	-2.4571823065	-0.255527
O	 1.4498402306	-0.9296869595	-2.1837782771	-0.286157
H	 1.2850247216	 0.9041080845	 0.9145432134	 0.291921
H	 0.7371663572	-1.1764285669	 0.5721308525	 0.07706
H	-2.9560008036	-2.0616576447	 0.7372000526	 0.111712
H	-1.9054218196	-1.2586067627	 1.9938477317	 0.113414
H	-2.2123604834	 0.9728121128	 0.8386783371	 0.13104
H	-3.2835528372	 0.1777586225	-0.4126564517	 0.109365
H	-0.8950790909	-2.482784625	-1.5012880475	 0.113381
H	-1.7687918085	-1.1460688723	-2.2941363548	 0.109989
H	 0.3359959266	 0.4041381128	-3.4405758923	 0.114902
H	 1.3245639787	 1.2113768177	-2.1104080031	 0.117574
66.0544	186.7237	209.5775	215.4382	232.3919	258.603	329.7434	365.5016	453.5916	496.5379	581.8888	697.5091	783.0691	800.0337	841.9445	873.8946	882.5728	905.8739	939.2984	955.2542	990.828	1054.7874	1066.6884	1081.5968	1110.2737	1124.5106	1138.1277	1152.3982	1167.559	1190.2175	1202.5916	1239.2513	1259.38	1274.3468	1380.0981	1433.4168	1444.1522	1462.1854	1485.8601	1504.5852	1538.9064	2994.7741	3048.4145	3085.6628	3102.6018	3121.9651	3130.3306	3175.6227	3202.834	3222.7988	3838.2529
OC1C2(CC2)CC11CO1	O[C@H]1C2(CC2)C[C@]21CO2	
InChI=1S/C7H10O2/c8-5-6(1-2-6)3-7(5)4-9-7/h5,8H,1-4H2	InChI=1S/C7H10O2/c8-5-6(1-2-6)3-7(5)4-9-7/h5,8H,1-4H2/t5-,7+/m0/s1
