27
gdb 122878	3.85878	0.54968	0.54133	1.2585	93.5	-0.2587	0.0658	0.3246	2256.6597	0.248801	-390.713036	-390.700883	-390.699939	-390.750727	44.563	
C	 0.058331291	 1.6408242305	 0.0857672224	-0.379172
C	-0.0094392912	 0.1130821559	 0.0121040482	-0.162982
C	 0.7035252626	-0.465988162	-1.2147092196	-0.161745
C	 0.6375420589	-1.9952796331	-1.2909551547	-0.183684
C	 1.3442358087	-2.5657523526	-2.5253003599	-0.207377
C	 1.4768108098	-4.1054845551	-2.5606719002	 0.344342
C	 0.1157423229	-4.8056634496	-2.5282381572	-0.390131
C	 2.2643811709	-4.5303703695	-3.8087057435	-0.415819
O	 2.1588042434	-4.5682092296	-1.3854191487	-0.456774
H	 1.0962159476	 1.989562375	 0.1317993674	 0.111674
H	-0.4039545932	 2.1005515498	-0.7950727112	 0.111858
H	-0.4602130452	 2.0230967672	 0.9707335926	 0.109774
H	 0.4294609698	-0.3187477317	 0.9213045616	 0.09436
H	-1.0599256753	-0.2070877293	 0.0038165215	 0.093166
H	 0.2652182215	-0.033320648	-2.1254724113	 0.088105
H	 1.7550968758	-0.1450234802	-1.2071723797	 0.086752
H	 1.0890802015	-2.4335481797	-0.3931757637	 0.104755
H	-0.4152544518	-2.3045381979	-1.2865500299	 0.093137
H	 0.8326891311	-2.23215372	-3.4380270636	 0.090191
H	 2.3589779041	-2.1429421609	-2.5812797327	 0.075898
H	-0.508831816	-4.4817190316	-3.3660785846	 0.108066
H	 0.2509140984	-5.8889216887	-2.5937346335	 0.116898
H	-0.4105644304	-4.5894933984	-1.5959827657	 0.124994
H	 3.2505863503	-4.0506115061	-3.8286874692	 0.099504
H	 2.4119144364	-5.6141841437	-3.812157344	 0.118815
H	 1.7415341935	-4.2476079919	-4.7282133103	 0.112803
H	 3.048210875	-4.1980402289	-1.3997351004	 0.272591
56.0301	65.3994	94.6408	135.1538	144.6828	206.5819	223.8327	248.1404	249.1008	274.8091	299.9058	342.7403	361.6987	411.2892	434.7779	475.6302	547.7958	735.1755	759.851	767.5038	840.7982	893.9504	917.1357	933.4634	942.6628	977.5688	1002.7131	1022.8621	1055.7266	1069.1997	1090.0252	1113.8569	1154.0685	1209.0952	1229.6565	1243.7414	1269.3826	1295.4743	1325.975	1331.6852	1341.5559	1376.133	1390.5523	1399.3094	1403.0098	1414.1875	1421.2473	1470.6553	1482.4018	1484.7862	1489.116	1491.4807	1497.7998	1499.9845	1505.9172	1510.364	1516.2183	2989.6857	2999.2952	3014.2447	3022.3084	3023.9554	3028.0705	3030.2481	3035.86	3047.4107	3048.758	3076.6945	3090.638	3094.2207	3099.7902	3111.319	3119.0758	3130.498	3800.476
CCCCCC(C)(C)O	CCCCCC(C)(C)O	
InChI=1S/C8H18O/c1-4-5-6-7-8(2,3)9/h9H,4-7H2,1-3H3	InChI=1S/C8H18O/c1-4-5-6-7-8(2,3)9/h9H,4-7H2,1-3H3
