21
gdb 111862	2.33208	1.55897	1.23239	0.8676	78.47	-0.2128	0.0855	0.2984	1138.0885	0.182153	-424.202646	-424.193471	-424.192527	-424.236383	34.139	
C	 0.2737237264	 0.8537021075	-0.5320952875	-0.236762
O	-0.0336156918	-0.0935676155	 0.4786392398	-0.242785
C	-1.3144053218	-0.6174218501	 0.3451470659	 0.032496
C	-1.6051700061	-1.6809205444	-0.6969850649	 0.021642
O	-0.5206946606	-2.2400835822	-1.3820920423	-0.266496
C	 0.399379135	-2.8135860335	-0.4412534254	-0.074093
C	-0.3339443045	-2.9305422746	 0.9133118388	-0.29038
C	-1.570669422	-2.0473693103	 0.7695514046	 0.228348
C	-2.7967633258	-2.3860168594	 1.5842965768	-0.482644
H	 1.2866441298	 1.2131192662	-0.3354613108	 0.123515
H	 0.2324277246	 0.3969094599	-1.5283453366	 0.13017
H	-0.4177273099	 1.7090876473	-0.5022439642	 0.104398
H	-2.1169969081	 0.0961377223	 0.5512087075	 0.076289
H	-2.5091286564	-1.6553581735	-1.2972719674	 0.093947
H	 0.7187320896	-3.783746538	-0.8370166947	 0.099347
H	 1.2761318858	-2.1659434732	-0.3515255663	 0.11058
H	-0.6605718415	-3.9585310836	 1.103244257	 0.101483
H	 0.3118513284	-2.6252202892	 1.7412256905	 0.114941
H	-2.6045159433	-2.2731248988	 2.6576927805	 0.122129
H	-3.6383315077	-1.7334993573	 1.3314127538	 0.115959
H	-3.1129015801	-3.4206450897	 1.4075504349	 0.117916
93.191	140.8021	162.9818	184.7375	201.2446	235.8878	255.5458	296.3321	347.5092	499.5012	571.2948	648.321	710.1563	750.3349	823.3043	860.7892	887.3821	951.3963	970.8934	1001.9596	1017.9789	1042.1331	1057.6795	1092.0093	1131.7433	1161.1674	1171.9703	1182.5485	1218.8451	1229.4309	1250.8874	1258.5198	1285.4881	1314.5186	1341.3736	1397.7154	1420.37	1445.5128	1481.3756	1487.6553	1490.8021	1492.5352	1503.5865	1506.7657	1524.1293	2990.4287	3022.3133	3037.6571	3048.0604	3058.4012	3061.3161	3076.4314	3082.7807	3097.9684	3100.3307	3119.6114	3160.4304
COC1C2OCCC12C	CO[C@H]1[C@H]2OCC[C@@]12C	
InChI=1S/C7H12O2/c1-7-3-4-9-6(7)5(7)8-2/h5-6H,3-4H2,1-2H3	InChI=1S/C7H12O2/c1-7-3-4-9-6(7)5(7)8-2/h5-6H,3-4H2,1-2H3/t5-,6+,7-/m0/s1
