23
gdb 76206	2.257	1.35593	1.22559	2.6022	81.48	-0.2405	0.0595	0.2999	1210.1014	0.202321	-425.430372	-425.419724	-425.41878	-425.464769	40.987	
C	-0.2214596284	 1.5140417756	 0.063111207	-0.449474
C	-0.0538694561	-0.0054159101	-0.0025993667	 0.298624
C	-1.3843889266	-0.6879760867	-0.3073316994	-0.456029
C	 1.1565040797	-0.4487928424	-0.88989677	-0.321693
C	 2.0308709104	-0.6388461768	 0.3828932642	 0.352384
C	 2.922631958	-1.8645465949	 0.4836960024	-0.45794
O	 2.7568876626	 0.5454688283	 0.7209811491	-0.487022
C	 0.7257955144	-0.5866549699	 1.2339030273	 0.100173
O	 0.7699967215	 0.1195061125	 2.4401249605	-0.436628
H	 0.7346791358	 2.0174642424	 0.2254981055	 0.117349
H	-0.6472921854	 1.8918667869	-0.8735260829	 0.103662
H	-0.8945411848	 1.7930933697	 0.879968974	 0.120443
H	-1.7846544492	-0.363917371	-1.2753671087	 0.109511
H	-1.276966784	-1.7780447383	-0.3411107619	 0.103379
H	-2.1322531136	-0.4487520422	 0.4575722112	 0.118892
H	 0.9761894597	-1.3910318384	-1.4158455866	 0.092582
H	 1.5291400137	 0.2885808108	-1.6072056017	 0.089327
H	 3.7447631536	-1.8148803331	-0.2419829934	 0.104409
H	 3.3559477572	-1.9380591052	 1.4860084211	 0.130643
H	 2.3575195547	-2.7793528884	 0.2804705971	 0.117222
H	 3.4726248422	 0.6579323085	 0.0874038135	 0.282198
H	 0.3710343884	-1.5981409402	 1.461748271	 0.072325
H	 1.431479136	 0.8130811627	 2.3214702675	 0.295662
92.4555	174.129	200.2128	210.4892	223.152	231.0135	242.1327	269.0955	308.2019	323.7047	341.4017	391.7497	417.3784	434.0807	533.3636	578.0071	611.295	757.3985	804.1788	845.8657	874.7051	912.7419	955.7973	959.1616	989.045	1005.2464	1030.2482	1091.4425	1133.9567	1154.3671	1191.4187	1197.3923	1232.6332	1260.1149	1283.51	1292.5875	1341.1696	1367.488	1397.974	1406.2301	1415.872	1441.8359	1470.5506	1485.6168	1487.1809	1489.5099	1491.9045	1500.3903	1515.7136	3017.0874	3020.2982	3031.4883	3041.6315	3048.3526	3083.3896	3087.2623	3087.8031	3097.2122	3099.9123	3113.6793	3121.0439	3775.3386	3819.2029
CC1(C)CC(C)(O)C1O	CC1(C)C[C@@](C)(O)[C@H]1O	
InChI=1S/C7H14O2/c1-6(2)4-7(3,9)5(6)8/h5,8-9H,4H2,1-3H3	InChI=1S/C7H14O2/c1-6(2)4-7(3,9)5(6)8/h5,8-9H,4H2,1-3H3/t5-,7+/m0/s1
