19
gdb 124615	2.51852	1.40832	1.11476	5.0721	77.79	-0.2209	0.016	0.2369	1172.2282	0.159939	-415.393033	-415.383733	-415.382789	-415.427675	33.965	
C	-0.1050500972	 1.5900322269	 0.1783841117	-0.382315
C	-0.0411817954	 0.0698816738	 0.00457639	 0.02787
C	 0.7952613948	-0.6085377232	 1.0959894566	-0.380355
N	-1.3921693381	-0.4955122937	-0.0314919129	 0.02456
N	-2.2997855962	-0.1978371458	 0.9345332684	-0.167752
N	-3.4021454728	-0.8225724102	 0.6426845572	-0.185363
C	-3.219794694	-1.5490782536	-0.4921402065	-0.142862
C	-1.9280362384	-1.3548406622	-0.9359645271	 0.305018
N	-1.2267621879	-1.7850488001	-2.0666130977	-0.606387
H	 0.9060594987	 2.0065511869	 0.1509468624	 0.115129
H	-0.6917463706	 2.0486162057	-0.6218127267	 0.128725
H	-0.5675395255	 1.8475628638	 1.1334054652	 0.153072
H	 0.3857192031	-0.1553882186	-0.9783527784	 0.104234
H	 0.349825819	-0.4275268536	 2.0778793976	 0.149748
H	 0.8492700228	-1.6905604002	 0.9410632431	 0.113105
H	 1.8141975818	-0.210337465	 1.0945058501	 0.120407
H	-4.0029864746	-2.155354046	-0.9183526076	 0.109348
H	-1.8186573033	-2.3315758625	-2.6786421847	 0.258517
H	-0.3992883263	-2.3279359124	-1.8450696907	 0.2553
30.5241	120.783	177.1105	197.0519	210.8924	249.6378	282.4082	299.1457	391.8249	434.4885	529.6305	630.9132	678.4008	716.5067	731.178	781.577	810.9224	890.9853	936.8192	954.4303	989.6657	1054.0322	1106.6289	1146.9208	1150.5973	1175.9836	1212.5429	1264.7236	1304.5307	1356.0969	1361.5868	1400.0127	1413.4648	1422.427	1479.9789	1489.0305	1495.8904	1496.6255	1513.5861	1602.1977	1658.3029	3041.3075	3050.6985	3059.6138	3111.8761	3122.0012	3128.1212	3141.5921	3263.2777	3520.3316	3616.1081
CC(C)N1N=NC=C1N	CC(C)n1nncc1N	
InChI=1S/C5H10N4/c1-4(2)9-5(6)3-7-8-9/h3-4H,6H2,1-2H3	InChI=1S/C5H10N4/c1-4(2)9-5(6)3-7-8-9/h3-4H,6H2,1-2H3
