21
gdb 122841	7.17806	0.51649	0.48916	0.7116	77.68	-0.2531	0.0157	0.2688	2266.578	0.179266	-461.393651	-461.38244	-461.381496	-461.432037	37.294	
C	 0.0638076521	 1.5562785661	 0.1655380915	-0.384989
C	 0.038867862	 0.0420244548	 0.0459440632	-0.028831
O	 0.6925747095	-0.5102944534	 1.170807073	-0.247791
C	 0.725522333	-1.9196431406	 1.1564735962	-0.046638
C	 1.4507330806	-2.3755447514	 2.4144042375	-0.345114
C	 1.5448884782	-3.8810946524	 2.507547043	 0.449505
O	 1.0996057048	-4.6630790871	 1.7039307488	-0.358691
O	 2.2017336319	-4.2527529349	 3.6246916138	-0.233604
C	 2.3449609868	-5.666288446	 3.8103421345	-0.239939
H	 1.094091842	 1.9213863889	 0.2034591878	 0.125842
H	-0.4362501625	 2.0147561838	-0.6928204011	 0.114714
H	-0.446809196	 1.8777013313	 1.0777869455	 0.125853
H	-0.9999816821	-0.3257680345	-0.0078197006	 0.086552
H	 0.5406834885	-0.2820807223	-0.8817047171	 0.08651
H	-0.2923533867	-2.3391712386	 1.1302145296	 0.100825
H	 1.2445726084	-2.2940909168	 0.2601808664	 0.100387
H	 2.4612861557	-1.9539586562	 2.4468952994	 0.140711
H	 0.9402707875	-1.9968821334	 3.306798707	 0.140953
H	 2.8909261507	-5.7888268777	 4.7457916823	 0.133276
H	 1.3663435668	-6.1491684923	 3.8724082756	 0.140205
H	 2.901709369	-6.1106172471	 2.9813118736	 0.140264
33.7479	47.8145	87.1927	101.9495	121.5458	131.3611	180.6869	207.5879	246.078	280.8807	338.977	431.3243	514.6731	589.9401	708.0816	809.4539	823.6587	882.7494	923.0083	1016.2996	1044.8399	1090.2426	1090.9869	1145.9864	1168.7888	1179.7187	1185.8071	1205.4896	1221.7124	1223.0511	1295.1899	1298.9959	1345.4398	1393.6641	1411.1514	1453.7727	1465.4254	1475.4086	1482.5605	1483.6599	1498.3265	1499.7126	1515.9476	1536.8244	1815.3119	2953.6096	2978.7842	2979.8157	3005.9577	3044.7427	3051.2247	3054.6174	3091.1579	3119.1544	3120.9822	3125.1702	3158.5453
CCOCCC(=O)OC	CCOCCC(=O)OC	
InChI=1S/C6H12O3/c1-3-9-5-4-6(7)8-2/h3-5H2,1-2H3	InChI=1S/C6H12O3/c1-3-9-5-4-6(7)8-2/h3-5H2,1-2H3
