16
gdb 22514	2.40732	1.22409	1.1071	0.8939	75.33	-0.2518	-0.0135	0.2383	1177.3212	0.120737	-437.787243	-437.777844	-437.7769	-437.821785	34.457	
O	-0.0615242551	 1.2960025869	 0.0470883112	-0.386185
N	-0.0160378883	-0.0970926574	 0.2060637609	-0.236687
C	-1.1540468327	-0.6197048522	 0.0384231463	 0.364629
C	-2.5475724308	-0.1795837804	-0.3457425381	-0.32146
C	-2.9031603454	-1.6841960866	-0.559465793	-0.261916
C	-1.5151054123	-2.114593272	 0.0309111656	 0.153026
O	-0.7993863723	-2.9208440505	-0.8814116555	-0.446763
C	-1.5718592282	-2.703741431	 1.366940598	 0.30476
C	-1.6036741639	-3.1892024441	 2.4664936015	-0.492435
H	 0.8578168915	 1.5487693786	 0.1863409027	 0.309137
H	-3.089315745	 0.2994116113	 0.4751346717	 0.134858
H	-2.6067002769	 0.4718049871	-1.2208156727	 0.134789
H	-3.7743417369	-2.0626284019	-0.0265069511	 0.120115
H	-2.9537126492	-1.9713681942	-1.6104402458	 0.131091
H	 0.0971532134	-3.0210104715	-0.5403793142	 0.291103
H	-1.6312153677	-3.6183613919	 3.4377239625	 0.201937
46.0633	97.3594	151.634	170.0566	235.0858	274.1778	332.4906	372.5434	418.1983	448.8124	496.9566	523.603	624.8588	631.8934	659.779	668.2825	750.2097	777.4535	918.4311	932.9453	964.3015	998.6985	1072.3989	1090.8586	1167.3166	1183.2894	1231.1013	1239.7359	1273.0103	1354.0146	1403.4229	1458.0067	1477.1094	1781.5745	2229.1174	3063.8199	3094.1509	3110.7791	3160.4028	3500.2414	3800.5135	3812.7768
ON=C1CCC1(O)C#C	ON=C1CC[C@]1(O)C#C	
InChI=1S/C6H7NO2/c1-2-6(8)4-3-5(6)7-9/h1,8-9H,3-4H2	InChI=1S/C6H7NO2/c1-2-6(8)4-3-5(6)7-9/h1,8-9H,3-4H2/t6-/m1/s1
