17
gdb 123914	3.44191	1.54155	1.1086	3.913	73.87	-0.2073	-0.0027	0.2046	1056.0258	0.139712	-418.008905	-418.001935	-418.000991	-418.040317	27.767	
C	-0.0228323186	 1.5322592004	-0.0053367765	-0.213431
C	 1.4111555109	 2.0926014359	 0.0009192248	-0.16419
N	 2.2088743665	 1.6925227003	 1.1691746926	-0.411624
C	 1.9509107251	 0.3943857454	 1.6265207026	 0.120718
C	 2.5345613918	-0.37660369	 2.5839352857	-0.028373
O	 1.9196678162	-1.5777278778	 2.6421129569	-0.17335
N	 0.910388427	-1.62342324	 1.6889883884	-0.231565
C	 0.9309132642	-0.4547044566	 1.097305604	 0.358461
C	-0.0045621601	-0.009430276	 0.0153435597	-0.319148
H	-0.5647146726	 1.9086056632	 0.871029428	 0.105558
H	-0.5522193531	 1.8916774613	-0.8934480119	 0.104053
H	 1.9286797813	 1.7490883936	-0.9056461097	 0.114041
H	 1.3999893952	 3.1848869701	-0.0381483853	 0.10764
H	 2.1957691004	 2.3837296944	 1.906090913	 0.237683
H	 3.3385983402	-0.2208618743	 3.2848699889	 0.140368
H	-1.0034907238	-0.4240668464	 0.1754870735	 0.128394
H	 0.3423433294	-0.3857923735	-0.9555923847	 0.124765
93.4042	217.438	290.586	338.8644	401.0133	447.7588	521.5858	541.9602	604.3838	674.7612	704.6975	736.8287	792.6153	862.3174	870.3317	922.4225	942.5729	960.7082	998.9194	1069.783	1105.4582	1132.2667	1192.6839	1211.9811	1237.4899	1289.8236	1303.6549	1349.5445	1366.0735	1396.3406	1422.1452	1466.9932	1479.798	1486.7752	1495.3993	1536.8014	1669.4319	3009.7821	3027.1536	3035.415	3085.1714	3093.1009	3095.5658	3271.172	3573.427
C1CNC2=CON=C2C1	C1CNc2conc2C1	
InChI=1S/C6H8N2O/c1-2-5-6(7-3-1)4-9-8-5/h4,7H,1-3H2	InChI=1S/C6H8N2O/c1-2-5-6(7-3-1)4-9-8-5/h4,7H,1-3H2
