16
gdb 85216	2.5195	1.27146	0.92452	3.9767	67.77	-0.2807	-0.0107	0.27	1233.0761	0.122557	-475.039402	-475.030489	-475.029545	-475.074102	30.949	
C	-0.2772019771	 1.5317912787	 0.0367431123	-0.397337
C	 0.0840462117	 0.0680669646	-0.0456255402	 0.096901
O	 1.3888978029	-0.152533481	-0.703535375	-0.260718
C	 1.9346743772	-0.6857950341	 0.437382098	 0.424882
N	 3.0926878395	-1.0700334148	 0.7185316867	-0.543228
C	 0.6354200754	-0.6226782357	 1.2252739187	-0.039942
O	 0.6170639392	 0.1946343945	 2.3824051967	-0.195378
C	 1.3254878394	-0.2455576718	 3.4568480416	 0.171417
O	 1.3565414773	 0.3708771454	 4.476423649	-0.264436
H	 0.4863288342	 2.0966721397	 0.5749477356	 0.146994
H	-0.3845576319	 1.9433601553	-0.9705552805	 0.136076
H	-1.2280083375	 1.6515915977	 0.564618518	 0.139565
H	-0.6787730945	-0.5152965965	-0.5676844519	 0.106391
H	 3.742111829	-0.9460275278	-0.0597628094	 0.238942
H	 0.1959913542	-1.6028204084	 1.4333746804	 0.124325
H	 1.8472379308	-1.1991900157	 3.2709538898	 0.115548
58.1492	87.7098	111.0923	141.8946	206.2581	245.1009	315.519	377.5051	448.1466	477.8437	603.8993	712.3521	764.9384	851.294	870.1987	897.3533	929.0659	1023.4576	1035.9373	1039.0335	1067.0749	1129.1963	1153.4568	1180.6459	1234.2775	1248.3219	1337.1684	1373.4645	1381.6124	1416.9829	1440.2395	1484.4286	1488.9305	1829.5714	1870.9258	3010.0824	3052.3579	3066.019	3083.9822	3123.9343	3144.3141	3482.3688
CC1OC(=N)C1OC=O	C[C@H]1O[C]([NH])[C@H]1OC=O	
InChI=1S/C5H7NO3/c1-3-4(8-2-7)5(6)9-3/h2-4,6H,1H3	InChI=1S/C5H7NO3/c1-3-4(8-2-7)5(6)9-3/h2-4,6H,1H3/t3-,4+/m1/s1
