23
gdb 80390	2.13802	1.59357	1.31619	1.6241	85.67	-0.226	0.083	0.309	1155.199	0.203327	-388.266266	-388.256363	-388.255418	-388.299832	38.59	
C	 0.2253755799	 1.6394569199	-0.4167037556	-0.429307
C	 0.269075329	 0.1422948835	-0.1905057978	-0.077409
C	 1.5159242182	-0.6756665311	-0.3042757997	 0.027922
O	 2.6374270473	 0.0395989884	 0.2213211666	-0.335499
C	 2.0897248199	-0.0633977052	 1.5827499463	 0.362262
C	 2.9133505199	-1.1052256148	 2.3386305484	-0.418385
C	 2.0831269911	 1.261721822	 2.3338201807	-0.446438
C	 0.7760133571	-0.6488363901	 1.0196097345	 0.209566
C	-0.0852316556	-1.6637661653	 1.7188539658	-0.500997
H	 1.2194526388	 2.0781741902	-0.3146484082	 0.1392
H	-0.1257096395	 1.8483883073	-1.4332364933	 0.110664
H	-0.4560284224	 2.144992272	 0.2762003251	 0.112248
H	-0.5906042618	-0.3836440659	-0.6062655326	 0.081532
H	 1.7150046214	-1.4598872144	-1.027674868	 0.092873
H	 3.9391734299	-0.7431321575	 2.4561660348	 0.120763
H	 2.5005800286	-1.2926751399	 3.3356253091	 0.110838
H	 2.9451848689	-2.0503237351	 1.7905071824	 0.119239
H	 1.4851899581	 2.0234025391	 1.8357962696	 0.124263
H	 1.6802288438	 1.1152818169	 3.3418411402	 0.114933
H	 3.1067057378	 1.6383329379	 2.4358422295	 0.121928
H	-0.7057524181	-1.1943545257	 2.4922733953	 0.120065
H	-0.7644233578	-2.1523070943	 1.0128448888	 0.119375
H	 0.5089620554	-2.4469028479	 2.2009080879	 0.120364
159.3418	175.5672	178.1876	183.8626	215.0377	255.9831	268.5916	286.1293	302.467	367.8316	406.1607	419.7949	543.7881	595.3756	633.6577	654.6052	759.6721	829.253	868.3265	909.9023	927.9387	949.3885	978.3784	1001.7484	1009.6074	1046.8134	1077.4856	1109.8505	1115.5687	1148.3967	1159.7038	1220.2242	1226.6752	1263.265	1319.1287	1331.6086	1397.7247	1405.9463	1411.0286	1419.3094	1462.4278	1475.5867	1480.901	1488.5123	1494.1528	1498.6836	1502.6367	1508.6859	1516.8141	3022.5644	3032.4	3034.709	3042.8855	3080.7469	3085.8953	3097.1066	3098.2523	3107.5831	3108.8417	3121.0202	3134.024	3159.9031	3162.7651
CC1C2OC(C)(C)C12C	C[C@H]1[C@H]2OC(C)(C)[C@@]12C	
InChI=1S/C8H14O/c1-5-6-8(5,4)7(2,3)9-6/h5-6H,1-4H3	InChI=1S/C8H14O/c1-5-6-8(5,4)7(2,3)9-6/h5-6H,1-4H3/t5-,6+,8-/m0/s1
