21
gdb 95633	2.25158	1.54787	1.06381	4.3962	78.25	-0.2545	0.0153	0.2698	1195.6437	0.183281	-424.279657	-424.270593	-424.269649	-424.313395	34.304	
C	-0.0162092701	 1.5867322115	-0.0847267144	-0.419778
C	 0.0571137064	 0.0570602221	-0.0741254259	 0.014349
C	 0.7526639835	-0.5154807327	-1.3117412897	-0.224453
C	 0.6307146011	-2.0299034032	-1.3037672354	-0.069573
O	 1.0648546006	-2.6442512579	-0.0792196982	-0.229392
C	 0.9667692513	-2.0336057887	 1.1271818256	 0.400098
O	 1.1496551958	-2.6886260645	 2.1186044132	-0.333316
C	 0.7272100561	-0.5212119567	 1.1924190758	-0.116219
C	 2.0707215474	 0.1389422591	 1.574519982	-0.403972
H	 0.9749988774	 2.0408145076	-0.1809870927	 0.122727
H	-0.6220661447	 1.9344122923	-0.9277013021	 0.115325
H	-0.4727801953	 1.9698292863	 0.8342113602	 0.118336
H	-0.9764420249	-0.3197447423	-0.085067035	 0.078703
H	 0.2946268787	-0.13385847	-2.2313603169	 0.105398
H	 1.8080540091	-0.2185386846	-1.3335958958	 0.110975
H	-0.4137539534	-2.3251993397	-1.4709406727	 0.113304
H	 1.2372890237	-2.4930496285	-2.086454818	 0.121086
H	 0.0528652012	-0.3866521264	 2.0447615385	 0.106387
H	 2.8069139903	 0.0725546859	 0.7671086157	 0.121265
H	 1.9295449588	 1.1942824151	 1.8191895182	 0.121486
H	 2.4846969067	-0.3645843048	 2.4505354675	 0.147262
64.944	119.1152	211.1464	227.4001	248.5414	271.2131	298.6898	312.0169	410.1878	427.6384	503.2665	575.5731	652.5103	720.5986	747.3856	820.8134	880.4702	916.1302	973.1126	987.7939	1007.7258	1039.1914	1066.7565	1084.2576	1126.2656	1153.9969	1191.8435	1223.2464	1245.0987	1280.5874	1307.6024	1339.6576	1342.8474	1371.4097	1400.7821	1404.2419	1414.3524	1431.0746	1483.446	1494.7072	1497.7362	1504.7613	1513.0616	1516.1609	1831.0014	2989.8708	3018.6329	3032.2638	3036.3634	3048.0851	3055.18	3077.1009	3093.4679	3099.6095	3106.2992	3118.4358	3135.5925
CC1CCOC(=O)C1C	C[C@H]1CCOC(=O)[C@H]1C	
InChI=1S/C7H12O2/c1-5-3-4-9-7(8)6(5)2/h5-6H,3-4H2,1-2H3	InChI=1S/C7H12O2/c1-5-3-4-9-7(8)6(5)2/h5-6H,3-4H2,1-2H3/t5-,6-/m0/s1
