22
gdb 59678	2.11285	1.35257	0.98359	3.9211	86.09	-0.2973	0.0317	0.329	1309.6761	0.193859	-367.231502	-367.221701	-367.220757	-367.266197	36.408	
C	-0.039945969	 1.5549016544	-0.0552644209	-0.3974
C	 0.0565876596	 0.0268012473	 0.0564765636	 0.009167
C	 0.797283971	-0.3891982601	 1.3352406979	-0.397331
C	-1.3339310314	-0.5994123234	-0.0083322023	 0.061084
C	-2.198664792	-0.4402036665	-1.2893804402	-0.242518
C	-2.7032241999	-1.892805211	-1.1047893929	-0.228841
C	-1.503051305	-2.1633197693	-0.1361535227	-0.198076
C	-0.3869561835	-2.8404049467	-0.7791245391	 0.287137
N	 0.4997755799	-3.3734283438	-1.2972647819	-0.343302
H	 0.9561476605	 2.0084844736	-0.0495798762	 0.116511
H	-0.5415362997	 1.8625632549	-0.9783017493	 0.116743
H	-0.6009058181	 1.9762834924	 0.7877320203	 0.111159
H	 0.6303868977	-0.3429160359	-0.8041170837	 0.093504
H	 0.9125667621	-1.4753579876	 1.4014836301	 0.125419
H	 1.7994453317	 0.0497622731	 1.3639259972	 0.117358
H	 0.2597519054	-0.0487619185	 2.2286708483	 0.108189
H	-1.9138101026	-0.2862964321	 0.8686105691	 0.079185
H	-2.9454443544	 0.3558772245	-1.2997767376	 0.106182
H	-1.5713334859	-0.3441245454	-2.1810899781	 0.118041
H	-3.6482671125	-1.9418708099	-0.5594125135	 0.114387
H	-2.7691022337	-2.5271893933	-1.9893171424	 0.124144
H	-1.74260147	-2.6929408967	 0.7889760443	 0.11926
72.4258	103.9025	119.9101	189.5506	217.5844	222.5174	247.4474	310.9848	346.9265	403.3698	450.5944	509.5522	604.101	689.3983	752.7773	796.7193	877.9794	899.7415	930.9544	943.7463	953.3509	972.0112	993.5852	1017.8138	1073.3884	1098.4616	1141.7689	1168.7722	1194.4647	1215.32	1237.3359	1261.7412	1271.3883	1274.8558	1316.9159	1347.4457	1353.1124	1397.5132	1400.0927	1421.8378	1482.3418	1486.1876	1492.5673	1498.3932	1504.5672	1510.2692	2345.7367	3014.8156	3024.9769	3027.5897	3036.3116	3058.7489	3074.0015	3083.9925	3090.9214	3096.6977	3104.2222	3107.5949	3115.0527	3138.0463
CC(C)C1CCC1C#N	CC(C)[C@H]1CC[C@H]1C#N	
InChI=1S/C8H13N/c1-6(2)8-4-3-7(8)5-9/h6-8H,3-4H2,1-2H3	InChI=1S/C8H13N/c1-6(2)8-4-3-7(8)5-9/h6-8H,3-4H2,1-2H3/t7-,8+/m0/s1
