16
gdb 38242	3.32006	1.80717	1.46353	1.3167	68.43	-0.2381	0.0105	0.2486	887.6649	0.126345	-437.80339	-437.79699	-437.796046	-437.834008	26.046	
C	-0.0058519293	 1.6611728141	 0.1677735569	-0.271036
C	 1.438761181	 1.1671879324	 0.009693967	 0.000915
O	 1.1084376749	 0.0117091361	 0.9207636175	-0.362813
C	-0.0093140429	 0.1178493439	-0.0324178104	 0.379732
C	-1.155717842	-0.7959894839	-0.3124641669	-0.199611
O	-1.5948996688	-0.4591138042	-1.660845898	-0.248253
C	-0.7955794296	 0.2213956896	-2.531648574	 0.14529
N	 0.4054629889	 0.6307489418	-2.4278844372	-0.293383
C	 0.9972944091	 0.2395008735	-1.1701073171	 0.020182
H	-0.2764874787	 1.9907156664	 1.1711803569	 0.108258
H	-0.41891252	 2.2876580566	-0.6236197232	 0.120505
H	 2.3831410959	 1.6763280323	 0.1988394203	 0.102628
H	-0.8414200208	-1.8450799258	-0.297208245	 0.136639
H	-2.0331721494	-0.670170859	 0.3268353633	 0.130932
H	-1.3670407688	 0.4040463719	-3.4396531776	 0.132524
H	 1.6615799709	-0.6214649458	-1.2807938425	 0.097493
137.4124	266.7095	307.9395	395.9073	452.9426	495.8693	571.6656	600.5339	678.12	721.6161	809.6569	861.1969	907.1914	912.9359	944.5333	955.571	978.8781	991.7621	1038.9157	1072.6509	1078.6113	1121.5811	1154.3604	1166.3938	1202.1863	1212.3125	1224.8714	1278.6469	1310.8807	1368.188	1394.0288	1409.2047	1488.379	1505.5719	1667.3013	3048.0742	3082.5292	3083.3304	3103.7466	3129.3057	3161.9083	3165.4586
C1C2OC11COC=NC21	C1[C@H]2O[C@]31CO[CH][N][C@@H]23	
InChI=1S/C6H7NO2/c1-4-5-6(1,9-4)2-8-3-7-5/h3-5H,1-2H2	InChI=1S/C6H7NO2/c1-4-5-6(1,9-4)2-8-3-7-5/h3-5H,1-2H2/t4-,5+,6-/m1/s1
