18
gdb 68629	2.46954	1.63962	1.35971	2.0529	77.18	-0.2277	0.0253	0.2531	1014.99	0.14818	-401.876573	-401.868678	-401.867734	-401.908482	31.842	
O	 0.0645290987	 1.3812644401	-0.0546081195	-0.478075
C	 0.0435103524	-0.003378118	-0.0082222705	 0.386761
C	 0.311719098	-0.823894734	-1.2837211943	-0.208046
N	-0.4045225648	-1.9568382509	-0.5734584863	-0.138909
C	 0.5569035705	-2.1930700227	 0.5561877683	-0.16472
C	 0.9155501571	-0.7482205448	 1.0208981029	-0.301039
C	-1.2828166142	-0.8586591668	 0.0293178441	-0.23841
C	-1.9803714756	-1.1169615907	 1.2680953579	 0.320155
C	-2.5528128417	-1.2921279642	 2.3120589103	-0.432194
H	 0.013298129	 1.722033721	 0.8449912835	 0.287996
H	-0.2630293058	-0.4907457725	-2.150085816	 0.114805
H	 1.3461191824	-1.037813657	-1.5634802955	 0.102327
H	 0.0701049158	-2.7863246741	 1.331278301	 0.122127
H	 1.4158417551	-2.7495244613	 0.1751662297	 0.108044
H	 1.9728847409	-0.4949045944	 0.9070579477	 0.104451
H	 0.6109629385	-0.5414801614	 2.0511479011	 0.105254
H	-1.9803551508	-0.5188356922	-0.7409142332	 0.111776
H	-3.0705891754	-1.4603624361	 3.224063609	 0.197698
127.9616	153.7082	262.6321	282.9046	347.2445	359.9716	400.5411	493.1468	517.5053	582.2067	610.8899	618.1076	654.8083	747.8499	817.179	825.8701	849.8283	863.3643	933.1254	946.8666	982.4028	993.2101	1069.1321	1100.9003	1118.7974	1153.4532	1181.719	1216.3128	1227.7849	1242.8683	1256.079	1297.6178	1339.5353	1379.6379	1390.8758	1491.4191	1500.9925	1525.5771	2226.284	3055.1639	3065.9999	3075.4363	3080.0691	3102.285	3130.9038	3134.8975	3501.018	3807.5335
OC12CN(CC1)C2C#C	O[C@@]12CN(CC1)[C@H]2C#C	
InChI=1S/C7H9NO/c1-2-6-7(9)3-4-8(6)5-7/h1,6,9H,3-5H2	InChI=1S/C7H9NO/c1-2-6-7(9)3-4-8(6)5-7/h1,6,9H,3-5H2/t6-,7+/m0/s1
