17
gdb 25958	4.69421	0.971	0.83154	4.1671	75.	-0.2141	-0.0304	0.1837	1354.7492	0.136562	-418.072341	-418.063877	-418.062933	-418.106447	30.562	
C	 0.139783916	 1.4434432864	-0.1903161832	-0.475525
C	 0.0216887297	 0.0274127157	 0.3299624589	 0.395508
O	 0.8007743213	-0.4215575328	 1.1436372409	-0.308849
C	-1.1662500057	-0.7834007938	-0.1913032042	-0.446944
C	-0.9908887358	-2.2668947694	-0.2036735385	 0.313646
C	-1.4837910463	-3.2394433837	-1.038964725	-0.172044
N	-1.0825419267	-4.4887884884	-0.6280599614	-0.259104
C	-0.3513074719	-4.2773939489	 0.4435793982	 0.008893
N	-0.2741997613	-2.9541916123	 0.7527453524	-0.285437
H	 0.8911816979	 1.992245289	 0.378096137	 0.148334
H	 0.4298206667	 1.4178202562	-1.2476120791	 0.153525
H	-0.8256910565	 1.9583543812	-0.1395740442	 0.142906
H	-2.0057150952	-0.4850582136	 0.4610789262	 0.1487
H	-1.4456043663	-0.4365767187	-1.1909394177	 0.133411
H	-2.108643422	-3.1066638911	-1.91009991	 0.099411
H	 0.1449927032	-5.0353151416	 1.0310997549	 0.126158
H	 0.301522043	-2.4935955343	 1.4414757749	 0.27741
48.8166	74.6518	144.3409	163.5257	265.9632	312.7281	339.9914	473.298	570.7145	614.2865	668.5331	708.5812	752.2136	802.9292	814.8534	843.4785	868.2949	938.2453	977.0363	1022.9505	1047.5767	1119.3291	1148.3903	1175.8998	1212.0772	1263.972	1269.8588	1346.2899	1384.9419	1387.6774	1425.3223	1452.2712	1461.2244	1474.8966	1506.6687	1606.6667	1799.5913	2963.4978	3036.1	3081.8012	3097.2902	3155.4195	3238.6992	3251.3327	3631.4629
CC(=O)CC1=CN=CN1	CC(=O)Cc1cnc[nH]1	
InChI=1S/C6H8N2O/c1-5(9)2-6-3-7-4-8-6/h3-4H,2H2,1H3,(H,7,8)	InChI=1S/C6H8N2O/c1-5(9)2-6-3-7-4-8-6/h3-4H,2H2,1H3,(H,7,8)
