18
gdb 43174	2.22326	1.81129	1.76255	2.5035	70.5	-0.2157	-0.0203	0.1954	925.8236	0.151128	-439.092391	-439.085259	-439.084315	-439.123773	28.526	
O	 0.0183438251	 0.048253359	-0.0590398129	-0.32878
C	-0.0156906521	 1.247967949	-0.0084485491	 0.426538
C	-1.2113721779	 2.1973199365	 0.0275334206	-0.123729
C	-1.2488500045	 2.7888947473	 1.4547960303	-0.213516
C	 0.0686301587	 3.5270395243	 1.7271134963	-0.075298
O	 1.2167283605	 2.7733622524	 1.3307098577	-0.277809
C	 1.149347901	 2.251303521	-0.001180884	 0.012053
C	 0.6606429118	 3.2667310695	-1.0423963446	-0.216675
N	-0.8351801841	 3.2458767056	-0.9503918803	-0.310556
H	-2.1538852487	 1.7175228118	-0.2391529332	 0.089408
H	-2.0882197735	 3.4858831679	 1.5521376797	 0.109057
H	-1.3911820904	 1.9761077361	 2.1760190498	 0.116993
H	 0.0528662637	 4.4962957438	 1.2114707571	 0.113648
H	 0.2033711836	 3.7185996921	 2.7945416696	 0.115778
H	 2.1223329394	 1.8113178667	-0.2158458656	 0.101227
H	 1.0519523493	 4.2706338352	-0.8457132795	 0.120191
H	 1.0070334909	 2.9614949815	-2.0361941928	 0.111111
H	-1.2298759728	 3.01802687	-1.8542944691	 0.230359
129.0104	169.3113	286.635	292.3379	396.0995	413.852	467.1924	511.4508	670.4344	674.694	753.4041	792.9885	805.7557	829.8838	861.6419	894.3317	979.4862	989.7461	1007.235	1045.0665	1062.642	1098.0217	1120.7961	1161.9957	1194.4217	1208.623	1242.4592	1261.5428	1292.0828	1304.7542	1343.421	1359.4014	1373.2615	1402.2211	1433.161	1474.1671	1501.1038	1517.3956	1869.2597	3020.1801	3033.2457	3038.1889	3070.4172	3086.646	3101.4376	3109.5826	3133.2511	3553.4497
O=C1C2CCOC1CN2	O=C1[C@H]2CCO[C@@H]1CN2	
InChI=1S/C6H9NO2/c8-6-4-1-2-9-5(6)3-7-4/h4-5,7H,1-3H2	InChI=1S/C6H9NO2/c8-6-4-1-2-9-5(6)3-7-4/h4-5,7H,1-3H2/t4-,5-/m1/s1
