22
gdb 118868	3.51673	0.93891	0.86608	2.5773	81.63	-0.2299	0.076	0.3059	1423.2686	0.19362	-404.294029	-404.284564	-404.28362	-404.328197	35.99	
C	 0.0287014151	 1.6434111172	 0.0781988271	-0.462246
C	 0.0324549461	 0.1156436873	 0.0129256831	 0.312423
C	-1.3706322226	-0.4582419453	-0.2360870124	-0.223833
C	-2.0392403034	 0.0024914005	-1.5272465659	-0.091809
O	-3.2418542015	-0.7405090883	-1.6670637761	-0.418077
C	 1.115567041	-0.5725060673	-0.8792889181	-0.218409
N	 1.6368984283	-1.4020205461	 0.2654306975	-0.126365
C	 2.159914617	-0.4300852479	 1.2412739819	-0.256841
C	 0.699969734	-0.6290371541	 1.1811446006	-0.061959
H	 1.006857433	 2.0368572578	 0.3682458906	 0.112834
H	-0.2239511419	 2.0843809091	-0.892028197	 0.117486
H	-0.7058120404	 2.0032727143	 0.8081417505	 0.116348
H	-1.3147638108	-1.5528306444	-0.2606131893	 0.11771
H	-2.0254186328	-0.1980808771	 0.6057105639	 0.100395
H	-2.2475772969	 1.0822430515	-1.4886536195	 0.087555
H	-1.3655059254	-0.1686202375	-2.3833272663	 0.086204
H	-3.6925362879	-0.4364065209	-2.4601333157	 0.285404
H	 0.7091112321	-1.2191824617	-1.6600384863	 0.11005
H	 1.8757925302	 0.0821368655	-1.3204413294	 0.095728
H	 2.6918855008	-0.9004118053	 2.0630514673	 0.120348
H	 2.6146490451	 0.4898404867	 0.8795043405	 0.107553
H	 0.1532719911	-1.1272260342	 1.9777255432	 0.089499
82.9257	110.4472	140.7583	202.7254	234.5349	267.9094	285.5716	333.0367	352.62	401.6222	464.0331	529.5329	669.2094	747.6624	779.9603	804.3161	852.6204	873.6391	951.7787	974.3313	985.5103	1008.9481	1017.5297	1045.1082	1064.1748	1073.6305	1108.7979	1117.8373	1164.5674	1189.4741	1205.9959	1228.1703	1247.5382	1257.3521	1275.9167	1296.2737	1330.344	1352.7285	1374.8605	1416.0693	1462.3286	1483.3647	1491.9685	1493.7895	1505.2982	1512.7014	1528.9089	2962.5238	2997.7562	3024.6233	3029.2497	3036.6296	3071.1822	3092.3074	3101.6469	3102.713	3108.186	3142.0964	3192.4551	3829.425
CC1(CCO)CN2CC12	C[C@@]1(CCO)CN2C[C@@H]12	
InChI=1S/C7H13NO/c1-7(2-3-9)5-8-4-6(7)8/h6,9H,2-5H2,1H3	InChI=1S/C7H13NO/c1-7(2-3-9)5-8-4-6(7)8/h6,9H,2-5H2,1H3/t6-,7+,8?/m0/s1
