19
gdb 96473	2.29922	1.91596	1.3506	2.5617	70.57	-0.2498	0.0791	0.3289	996.714	0.161175	-460.140737	-460.133118	-460.132174	-460.172441	30.758	
O	 0.2160631488	 1.3378634589	-0.2673075699	-0.429869
C	 0.0191591632	-0.0418594214	-0.0334753413	 0.094623
C	 0.7495324988	-0.452412014	 1.2592754637	-0.105909
O	 0.4757832961	 0.4571099574	 2.3225978597	-0.243389
C	-0.8168832818	 0.4009111223	 2.8679128407	 0.013896
O	-1.7991973113	 0.9696954005	 2.0342888001	-0.245592
C	-2.3438768246	 0.0650684702	 1.1048686116	 0.090936
C	-2.5408278478	 0.5457992852	-0.2979077288	-0.315034
C	-1.4565129917	-0.4625662954	 0.0079644062	-0.079509
H	 0.1264542795	 1.7694097939	 0.5932677087	 0.291375
H	 0.4924077957	-0.5634634672	-0.874679458	 0.087684
H	 0.4798295146	-1.4792994898	 1.5490433179	 0.092787
H	 1.8315345248	-0.3999231441	 1.1100104477	 0.116906
H	-1.0823237437	-0.6400626468	 3.1157220596	 0.084243
H	-0.7826491169	 1.013635027	 3.7715045949	 0.118595
H	-3.0917948128	-0.5989456329	 1.536883569	 0.089157
H	-3.4289940407	 0.2284920366	-0.8322123818	 0.112791
H	-2.1890130944	 1.5459572805	-0.5207022871	 0.140185
H	-1.6241782657	-1.4934250909	-0.2927279728	 0.086123
132.5334	201.5406	246.4601	294.7442	333.2854	400.5606	428.2537	446.8269	493.7134	530.657	664.8265	723.9403	779.8165	798.9525	837.0426	886.0037	956.7044	994.9808	998.8079	1031.2456	1056.8185	1066.9474	1086.3136	1103.1328	1130.6368	1158.5397	1163.7782	1198.27	1242.994	1259.9379	1295.4287	1335.6083	1354.9175	1366.9946	1398.2375	1400.235	1441.8388	1445.3002	1481.3499	1484.8294	1501.2407	2969.4239	2996.736	3033.1176	3093.9192	3104.4172	3110.0069	3139.8989	3146.2513	3239.8516	3759.8387
OC1COCOC2CC12	O[C@H]1COCO[C@H]2C[C@@H]12	
InChI=1S/C6H10O3/c7-5-2-8-3-9-6-1-4(5)6/h4-7H,1-3H2	InChI=1S/C6H10O3/c7-5-2-8-3-9-6-1-4(5)6/h4-7H,1-3H2/t4-,5-,6-/m0/s1
