18
gdb 114284	3.65034	1.17058	1.0531	3.1202	72.28	-0.2498	0.0131	0.2629	1174.9571	0.149225	-439.057412	-439.049597	-439.048653	-439.089993	29.982	
O	-0.1021480784	 1.5463356728	-0.3248561689	-0.416493
C	 0.0038902698	 0.2632304192	 0.2555466982	-0.063545
C	-1.305129975	-0.4901698511	 0.1472886159	 0.046674
O	-1.6448863808	-0.6555596107	-1.3094416426	-0.301179
C	-1.3588221147	-1.9862295496	-1.1700861528	 0.434809
N	-0.8403129956	-2.8792048092	-1.8918682878	-0.307184
C	-0.3761079259	-3.8789312743	-0.8785826649	-0.154962
C	-0.2048271199	-3.0880823013	 0.4774908011	-0.272517
C	-1.3268377321	-2.0468590197	 0.3163076291	-0.160755
H	-0.3728534532	 1.4108636253	-1.2410340476	 0.297789
H	 0.8112326286	-0.3253337585	-0.2059907871	 0.102138
H	 0.254216928	 0.4066077538	 1.3123567273	 0.119998
H	-2.1191839469	 0.0459397188	 0.6385779296	 0.10818
H	-1.1019338318	-4.6963703844	-0.7774584874	 0.111148
H	 0.5647576647	-4.3169219467	-1.2204881151	 0.118534
H	-0.3055404123	-3.7208567923	 1.3620864203	 0.108903
H	 0.7853755376	-2.623261753	 0.5005730398	 0.118657
H	-2.2660910321	-2.3661193592	 0.7746959726	 0.109805
87.6971	128.1968	170.9309	258.2256	303.7148	417.1372	450.1945	470.6113	514.9273	638.6209	679.9126	763.9251	787.601	803.2569	851.7046	901.9636	938.1144	991.2128	1004.8602	1014.069	1081.0632	1106.1264	1114.1463	1152.9282	1174.7697	1196.7685	1220.1957	1234.9167	1286.826	1307.3235	1312.4836	1345.4492	1353.3049	1401.2179	1434.4811	1483.0274	1492.9759	1503.5826	1774.7848	2993.6948	3026.195	3060.6662	3074.2035	3078.0571	3097.9999	3107.0147	3118.3956	3792.539
OCC1OC2=NCCC12	OC[C@H]1O[C]2[N]CC[C@@H]12	
InChI=1S/C6H9NO2/c8-3-5-4-1-2-7-6(4)9-5/h4-5,8H,1-3H2	InChI=1S/C6H9NO2/c8-3-5-4-1-2-7-6(4)9-5/h4-5,8H,1-3H2/t4-,5+/m0/s1
