21
gdb 113585	3.55337	1.03814	0.96191	0.7411	79.88	-0.2286	0.0879	0.3165	1337.8928	0.182269	-424.204492	-424.195431	-424.194487	-424.238914	33.662	
C	-0.1113632165	 1.2739484189	-0.3837094997	-0.229176
O	-0.2764348111	 0.2284456791	 0.5540857861	-0.238128
C	-1.3957958322	-0.5593720012	 0.308957957	 0.044098
C	-1.3314151824	-1.6502030226	-0.7527091984	-0.404749
C	-1.3221291461	-2.0068563314	 0.7031411802	 0.409356
C	-0.1171875069	-2.5646044802	 1.4640234661	-0.308866
C	-0.7768395623	-3.3828650003	 2.6017251579	-0.211106
C	-2.2283160632	-2.8809961866	 2.5816638925	-0.09269
O	-2.4936397679	-2.6000516283	 1.2113630389	-0.282813
H	 0.8004260132	 1.8108841305	-0.1112945178	 0.125528
H	-0.0114097889	 0.8873304422	-1.4078828135	 0.109931
H	-0.958801718	 1.9753026983	-0.3599763784	 0.107344
H	-2.3560184348	-0.0585675476	 0.4413617469	 0.090009
H	-2.2323035173	-1.8610835884	-1.3186625523	 0.121557
H	-0.3990949896	-1.7665201552	-1.2961649304	 0.116864
H	 0.512544519	-3.1917308841	 0.8279225206	 0.106323
H	 0.5017258075	-1.7481404007	 1.8420151786	 0.128437
H	-0.7511436987	-4.4513787461	 2.3702541109	 0.108473
H	-0.2939025295	-3.2359361841	 3.5706886505	 0.1019
H	-2.9624523052	-3.6156870325	 2.920933828	 0.105534
H	-2.3361752692	-1.9689095596	 3.1900872659	 0.092173
49.3273	94.2059	151.0201	163.1112	206.0659	246.6986	324.5197	389.7033	458.3201	506.7899	573.357	622.0856	775.5026	834.8389	852.771	876.0869	888.623	926.3632	948.9755	997.0007	1004.4072	1032.022	1048.5542	1067.3463	1101.1954	1128.8989	1176.8582	1183.7529	1196.575	1224.6319	1224.8427	1248.123	1258.0536	1290.9002	1324.6288	1345.9673	1383.1133	1399.9602	1466.6337	1485.7139	1488.5742	1490.1128	1505.6501	1509.2978	1520.3875	2978.6576	2985.6548	3037.3985	3058.7418	3069.6479	3094.0845	3097.6872	3104.5041	3116.7301	3121.5721	3128.096	3222.526
COC1CC11CCCO1	CO[C@H]1C[C@]21CCCO2	
InChI=1S/C7H12O2/c1-8-6-5-7(6)3-2-4-9-7/h6H,2-5H2,1H3	InChI=1S/C7H12O2/c1-8-6-5-7(6)3-2-4-9-7/h6H,2-5H2,1H3/t6-,7-/m0/s1
