18
gdb 90811	3.2086	1.73336	1.39162	2.3822	73.05	-0.2208	0.0617	0.2826	946.3516	0.15015	-401.872272	-401.865426	-401.864482	-401.903606	28.251	
O	 0.4004946018	 1.1305457885	-0.7007188368	-0.428058
C	 0.0630790786	-0.0704685622	-0.0161100859	 0.116124
C	 0.8365530445	-0.2426141012	 1.298526953	-0.277849
C	-0.0161789968	-0.9152008585	 2.354363302	-0.039019
C	-1.3829041818	-0.4002627042	 2.7287573035	-0.110507
C	-1.2385298589	-1.7460442317	 2.0610884754	-0.03075
N	-2.0711007755	-1.3281469506	 0.8607564308	-0.171134
C	-2.157018705	 0.0461220462	 1.4747553909	-0.068075
C	-1.4340302524	-0.167514716	 0.1948805211	-0.060272
H	 0.1442758041	 1.8670940925	-0.1340086914	 0.276457
H	 0.3399184046	-0.865913368	-0.7175466933	 0.101683
H	 1.7587696349	-0.8053449276	 1.1250882086	 0.11023
H	 1.1407887498	 0.7483085373	 1.6606036906	 0.095634
H	 0.5291033766	-1.2902900403	 3.2173927331	 0.092399
H	-1.6805016689	-0.1540580156	 3.7390024026	 0.093371
H	-1.3907026584	-2.7500859845	 2.4356656539	 0.100592
H	-3.1105546169	 0.5624947591	 1.5270549878	 0.097059
H	-1.9930833704	 0.106471707	-0.698006146	 0.102118
64.0777	256.2378	327.4731	375.0066	424.1078	475.3356	520.6266	606.4085	690.3094	718.6737	728.5923	747.1241	827.5143	861.8202	878.7237	928.3435	946.2791	980.8305	1014.1252	1017.0625	1055.4067	1061.1001	1069.7285	1080.225	1102.6922	1132.723	1153.8438	1201.5263	1228.6013	1264.3101	1293.0581	1312.0504	1332.8035	1337.8108	1365.591	1415.9064	1434.2424	1441.933	1488.8304	3018.1551	3040.6401	3077.5546	3128.5869	3138.2736	3154.8618	3189.7128	3204.6749	3794.9
OC1CC2C3C2N2C3C12	O[C@H]1C[C@H]2[C@@H]3[C@H]2N2[C@@H]3[C@@H]12	
InChI=1S/C7H9NO/c9-3-1-2-4-5(2)8-6(3)7(4)8/h2-7,9H,1H2	InChI=1S/C7H9NO/c9-3-1-2-4-5(2)8-6(3)7(4)8/h2-7,9H,1H2/t2-,3-,4+,5-,6+,7-,8?/m0/s1
