16
gdb 31066	2.38155	1.42833	0.91201	1.0004	69.78	-0.17	0.0414	0.2114	1237.1401	0.124788	-471.222977	-471.213954	-471.21301	-471.256782	32.864	
C	 0.144399133	 1.4455635919	 0.0436086665	-0.322019
N	-0.2959492187	 0.0813302566	-0.2317553326	-0.397957
C	 0.4400851584	-0.6563283023	-1.1516396214	 0.228357
C	 0.6874959618	-1.9870095129	-1.1754557584	 0.199434
O	 0.4781419741	-2.9975137731	-0.30803251	-0.423184
O	 1.407886437	-2.2618173993	-2.3480035286	-0.206478
C	 1.5366239337	-1.054963928	-2.92441957	 0.459144
N	 2.150164759	-1.0179819075	-4.1547978309	-0.58855
N	 1.0019072524	-0.0616068687	-2.2822279471	-0.391623
H	 1.1352019172	 1.5051166077	 0.521069167	 0.104499
H	 0.1896727588	 1.999306586	-0.8953711437	 0.154902
H	-0.5882484187	 1.9264278193	 0.6970663133	 0.115527
H	-0.4593752221	-0.4534823655	 0.6110615921	 0.234332
H	-0.2610767384	-3.5434423494	-0.6077676482	 0.304643
H	 2.8848467683	-1.700745226	-4.2750598433	 0.261844
H	 2.4315872741	-0.0834737287	-4.4136185548	 0.267127
69.0054	145.9666	177.0574	206.9777	244.2327	276.2458	304.8819	322.6593	377.9897	398.6886	566.3575	605.9517	628.0812	663.0192	689.5993	718.8431	763.7418	859.7818	1021.5799	1033.5495	1092.9708	1151.3999	1159.2528	1166.4468	1239.2198	1288.0481	1405.9144	1443.5585	1468.0188	1482.3783	1496.142	1523.456	1604.16	1678.1418	1757.9086	2978.8937	3088.1018	3142.2025	3567.4697	3574.4711	3675.5633	3717.8372
CNC1=C(O)OC(N)=N1	CNc1c(O)oc(N)n1	
InChI=1S/C4H7N3O2/c1-6-2-3(8)9-4(5)7-2/h6,8H,1H3,(H2,5,7)	InChI=1S/C4H7N3O2/c1-6-2-3(8)9-4(5)7-2/h6,8H,1H3,(H2,5,7)
