16
gdb 28913	2.32955	1.83801	1.03154	2.9653	75.64	-0.203	0.0163	0.2193	1091.2364	0.126039	-437.95452	-437.946465	-437.945521	-437.986853	31.451	
N	-0.2518827824	 1.3835473138	-0.1560479253	-0.624049
C	-0.063396593	-0.028922501	-0.0601018794	 0.168695
C	-1.2211168161	-0.805206326	-0.1179846065	 0.219725
O	-2.4590949459	-0.2301396672	-0.2484373591	-0.476602
C	-1.1555929325	-2.1997981851	-0.0655686118	 0.324629
O	-2.2948997184	-2.9394770328	-0.1339365703	-0.446736
C	 0.0848598624	-2.8232274552	 0.0363307398	-0.224377
C	 1.244049799	-2.0513919964	 0.0693332226	-0.099927
C	 1.1780732309	-0.6607882587	 0.0263134467	-0.217282
H	 0.6159117491	 1.8604392357	-0.3703813684	 0.246497
H	-0.6122280834	 1.7733829847	 0.7108332163	 0.250812
H	-2.3040421844	 0.66871712	-0.5775311855	 0.298115
H	-3.028932659	-2.3230756428	-0.2544306491	 0.306369
H	 0.1223791224	-3.9056433052	 0.0721760762	 0.101667
H	 2.2090141678	-2.5410738921	 0.140103233	 0.091876
H	 2.0824579534	-0.0620258318	 0.067981701	 0.08059
96.9899	160.1593	249.2465	299.406	304.5264	305.975	458.7104	503.8986	510.4058	551.0462	566.0595	584.3795	591.77	707.1593	730.4004	768.9723	829.6291	858.5365	868.539	925.3622	1016.9046	1079.1168	1157.2431	1178.0543	1213.083	1259.3003	1282.9579	1329.3464	1382.3335	1404.0719	1528.1978	1532.8239	1629.6704	1662.1422	1665.2475	3170.0975	3188.9283	3205.7266	3491.6355	3590.3504	3707.8583	3778.4254
NC1=C(O)C(O)=CC=C1	Nc1c(O)c(O)ccc1	
InChI=1S/C6H7NO2/c7-4-2-1-3-5(8)6(4)9/h1-3,8-9H,7H2	InChI=1S/C6H7NO2/c7-4-2-1-3-5(8)6(4)9/h1-3,8-9H,7H2
