19
gdb 116537	2.00005	0.966	0.77947	1.082	74.45	-0.19	0.042	0.232	1525.0807	0.156003	-456.400799	-456.389218	-456.388274	-456.440425	38.62	
C	-0.6007994527	-0.2987717454	 1.7983139394	-0.386113
C	 0.2111826236	-0.0544482584	 0.5222923762	-0.145844
N	-0.5834508913	 0.4128471839	-0.6204980166	-0.321696
H	-1.067756284	 1.2767508453	-0.4139637466	 0.228737
C	-1.4235566831	-0.4734736302	-1.3022751675	 0.386275
N	-0.7727977062	-1.6592174428	-1.6761944756	-0.54519
C	-2.7145035417	-0.2126318302	-1.5798514819	-0.474649
C	-3.2839214936	-3.2139225477	-0.1268523161	 0.596079
O	-3.2803391718	-3.6005050286	-1.2248825577	-0.307523
O	-3.2999259128	-2.8574155194	 0.9789889585	-0.286887
H	 0.0492444194	-0.6397620122	 2.6113119115	 0.111732
H	-1.0966694469	 0.6205265432	 2.1306648593	 0.107952
H	-1.3711574265	-1.0571692915	 1.6334995237	 0.146663
H	 0.9898445202	 0.6941356148	 0.7076920617	 0.100509
H	 0.7187336645	-0.9746659203	 0.2245120675	 0.120036
H	 0.134497045	-1.4954778459	-2.096411688	 0.243797
H	-1.3459570092	-2.2524011172	-2.2598262043	 0.252924
H	-3.2731606679	-0.8235773649	-2.2767980938	 0.090292
H	-3.2178204652	 0.6390376775	-1.1407749296	 0.082908
31.4412	50.6342	62.6214	67.9841	81.8808	98.1957	108.8443	223.94	303.3232	398.6255	416.2678	460.8289	504.6992	611.3667	666.2795	675.2562	685.8714	729.5394	752.849	776.7458	791.7951	885.4417	934.8995	985.9921	1068.8242	1126.5192	1153.8064	1179.3072	1312.7001	1374.3273	1376.973	1409.4574	1412.9312	1430.9596	1484.4065	1491.4867	1501.3168	1508.2441	1629.7048	1711.9361	2429.7718	3031.0711	3043.5611	3089.6788	3111.0176	3126.1459	3169.307	3254.5683	3529.441	3571.9626	3642.5178
CC[NH+]=C(N)CC([O-])=O	CCNC(=[NH2])[CH2].C(=O)=O	
InChI=1S/C5H10N2O2/c1-2-7-4(6)3-5(8)9/h2-3H2,1H3,(H2,6,7)(H,8,9)	InChI=1S/C4H10N2.CO2/c1-3-6-4(2)5;2-1-3/h6H,2-3,5H2,1H3;
