18
gdb 38552	2.78522	2.24864	1.67913	1.5888	79.15	-0.2051	-0.0001	0.205	858.4609	0.150678	-364.747952	-364.741666	-364.740721	-364.778101	27.15	
C	-0.1189921898	 1.4649125507	-0.1288956924	-0.390024
C	 1.2537403263	 0.8423540086	 0.018361649	-0.022772
C	 2.176161963	 0.2209640141	-1.0376819363	-0.180779
N	 1.4595086221	-0.9111512416	-1.6615842658	-0.124201
C	 0.8077292369	-2.0296429034	-0.8488575776	-0.068835
C	 0.6823391838	-2.1137500451	 0.6526661671	-0.101568
C	 0.0819152361	-1.0219005672	 1.148579196	-0.1922
C	-0.0077612216	-0.019741716	 0.0358913561	 0.265642
C	 0.0613258718	-0.8226347369	-1.2663444836	-0.107811
H	-0.4437010692	 2.0959119292	 0.6936577081	 0.117489
H	-0.4709968665	 1.7993834182	-1.1020640344	 0.11833
H	 1.7091497386	 1.0247083143	 0.9866032304	 0.091108
H	 2.4645986837	 0.9031865658	-1.8481243849	 0.107719
H	 3.1018261365	-0.1163456907	-0.5586273139	 0.110092
H	 0.8011442256	-2.9483934783	-1.4251953139	 0.095381
H	 1.0122900731	-2.9743501019	 1.2200507273	 0.098443
H	-0.1019568669	-0.8010774506	 2.1937851127	 0.10284
H	-0.7199394034	-0.7605052591	-2.0211547638	 0.081147
189.6134	291.4407	334.1219	394.3519	524.5722	551.428	642.6451	659.9066	703.5133	732.6191	795.8229	809.66	839.	845.4635	865.2999	912.5204	919.4481	928.4327	948.3822	1003.6101	1040.3737	1057.6658	1082.5697	1097.8385	1115.2984	1125.1543	1129.5847	1224.6993	1242.2663	1261.6249	1283.8152	1296.6841	1331.001	1340.8335	1371.8616	1404.7281	1482.3474	1498.2879	1620.8928	3016.3657	3066.0112	3106.4827	3121.7422	3154.1991	3169.1899	3191.5975	3192.4085	3222.5364
C1C2CN3C4C=CC12C34	C1[C@@H]2CN3[C@H]4C=C[C@@]12[C@@H]34	
InChI=1S/C8H9N/c1-2-8-3-5(8)4-9-6(1)7(8)9/h1-2,5-7H,3-4H2	InChI=1S/C8H9N/c1-2-8-3-5(8)4-9-6(1)7(8)9/h1-2,5-7H,3-4H2/t5-,6+,7+,8-,9?/m1/s1
