21
gdb 117355	4.25465	0.6959	0.65099	2.6798	77.49	-0.2614	0.0192	0.2806	1825.2967	0.178518	-461.391762	-461.38065	-461.379706	-461.429365	37.985	
C	 0.0905318176	 1.4019414107	-0.1414819002	-0.223626
O	-0.0092904641	 0.0017293297	-0.0279752114	-0.210857
C	 0.6499786952	-0.6680959256	-1.0594354551	-0.170103
C	 0.4992383895	-2.1701292527	-0.8681420975	 0.41313
O	-0.0761665703	-2.7107992477	 0.0367969718	-0.341462
O	 1.1252917352	-2.800699341	-1.8814184307	-0.263861
C	 1.1052807144	-4.2550231268	-1.8677827579	 0.148092
C	-0.2012770685	-4.7539674453	-2.4755552367	-0.396766
C	 2.3414075341	-4.7005833448	-2.6344441409	-0.393075
H	 1.137697431	 1.742420924	-0.1052217487	 0.105478
H	-0.3568936563	 1.7699799351	-1.0785582712	 0.105371
H	-0.4513693826	 1.8331006844	 0.7029650601	 0.134353
H	 0.2469691321	-0.4040824003	-2.052181907	 0.115192
H	 1.7272943785	-0.4302816734	-1.0881554246	 0.115301
H	 1.1644212106	-4.5701056188	-0.8221660365	 0.110869
H	-0.3102830873	-4.3943128896	-3.5038218704	 0.1195
H	-0.2132170952	-5.8482976173	-2.4909856564	 0.119193
H	-1.0539774055	-4.4109937262	-1.88575319	 0.143615
H	 3.2494204762	-4.3010101457	-2.1749441094	 0.124007
H	 2.4075460363	-5.7925778536	-2.6368238791	 0.121189
H	 2.299901039	-4.356382335	-3.6726286881	 0.124459
43.7554	57.5809	73.9103	110.6236	122.5236	212.6446	234.5354	234.9998	263.2859	290.5057	369.9167	402.9134	428.6599	481.7671	605.6561	732.7692	828.5347	911.2781	934.4454	949.8511	963.7451	1030.5522	1038.549	1139.8164	1161.9259	1175.1232	1183.9981	1202.8102	1214.0328	1247.9599	1250.9904	1358.8586	1384.0481	1402.5323	1417.1806	1423.455	1472.7819	1481.2025	1486.0289	1486.3188	1492.6983	1495.71	1511.1614	1516.8254	1840.7322	2956.6147	2971.8486	2982.1731	3013.5894	3040.2866	3044.3837	3074.0056	3109.7029	3120.1185	3121.6476	3122.0515	3134.6463
COCC(=O)OC(C)C	COCC(=O)OC(C)C	
InChI=1S/C6H12O3/c1-5(2)9-6(7)4-8-3/h5H,4H2,1-3H3	InChI=1S/C6H12O3/c1-5(2)9-6(7)4-8-3/h5H,4H2,1-3H3
