15
gdb 18669	3.29735	2.36303	1.54111	3.809	62.55	-0.267	-0.002	0.265	806.1745	0.120868	-399.790756	-399.78425	-399.783306	-399.821564	24.802	
N	-0.1223604961	 1.2770507811	 0.0852031165	-0.511869
C	-0.0228048599	 0.0221062281	-0.0404028027	 0.396505
O	 1.1780104688	-0.6256774346	-0.0757791737	-0.25133
C	 1.2514068862	-1.8053699742	-0.8926293659	-0.091202
C	 0.2530864889	-2.8814581206	-0.4734067404	-0.241165
C	-1.1302915082	-2.2836769218	-0.2815978433	 0.0329
O	-1.3805219857	-1.7483487847	 1.0139047309	-0.237276
C	-1.2513741804	-0.8262755716	-0.0796012955	-0.02748
H	 0.8083182254	 1.7008664827	 0.1061519851	 0.224572
H	 1.0833991288	-1.5189753545	-1.9397845444	 0.111752
H	 2.2819224237	-2.1537633321	-0.7983690106	 0.125244
H	 0.2319829123	-3.6627707659	-1.2403413076	 0.111385
H	 0.5622126294	-3.3474956502	 0.4675074198	 0.134052
H	-1.9752373692	-2.8159499235	-0.7165352516	 0.103265
H	-2.1576329839	-0.2888815282	-0.3423754166	 0.120649
90.9144	223.756	244.7159	388.7609	415.3876	473.8296	520.9573	677.663	733.4291	780.1722	814.6148	871.982	906.2796	935.4885	962.4833	989.1559	1058.9138	1064.7618	1107.7025	1135.5096	1159.2238	1249.3318	1272.3741	1284.2928	1319.9059	1370.0488	1378.2905	1423.1872	1450.8509	1469.6647	1509.2058	1751.7682	3015.315	3050.2168	3095.0957	3112.4342	3119.4286	3168.0996	3459.5998
N=C1OCCC2OC12	[NH][C]1OCC[C@H]2O[C@@H]12	
InChI=1S/C5H7NO2/c6-5-4-3(8-4)1-2-7-5/h3-4,6H,1-2H2	InChI=1S/C5H7NO2/c6-5-4-3(8-4)1-2-7-5/h3-4,6H,1-2H2/t3-,4-/m1/s1
