23
gdb 63204	2.69377	1.48797	1.27567	0.1207	90.32	-0.2338	0.0258	0.2596	1137.3505	0.206714	-351.164581	-351.155938	-351.154994	-351.197159	34.999	
C	-0.0309324408	 1.583310822	-0.0437326649	-0.428769
C	-0.0090596291	 0.0460630422	-0.0185212753	 0.250211
C	-1.4625356116	-0.4754872095	-0.0324676966	-0.41791
C	 0.7608993526	-0.5498728477	-1.1899388287	-0.089535
C	 1.5826682531	-1.5381977185	-0.8365511523	-0.098326
C	 1.5783881579	-1.7889402671	 0.6488274827	-0.06201
C	 2.8292486096	-1.2832623335	 1.4243566006	-0.226895
C	 2.1136578939	 0.0786563813	 1.6369105226	-0.242729
C	 0.7638569307	-0.5619236039	 1.1827218282	-0.024084
H	 0.9735862612	 2.0107354197	-0.0999180782	 0.11515
H	-0.5916083497	 1.9448451082	-0.9131731583	 0.108176
H	-0.5192728135	 1.9832729293	 0.8519441322	 0.110012
H	-1.9742539396	-0.1969290257	-0.9604812668	 0.106571
H	-1.4883202362	-1.5666622616	 0.0479449214	 0.113576
H	-2.0343763358	-0.056344154	 0.8037602096	 0.106916
H	 0.6008111228	-0.2052653449	-2.2078169606	 0.083224
H	 2.195322843	-2.1148698385	-1.5230188847	 0.087004
H	 1.244215083	-2.8018377732	 0.8992385019	 0.066694
H	 2.9760219214	-1.8295922939	 2.360299032	 0.095871
H	 3.7776205816	-1.2678389281	 0.8800751505	 0.092911
H	 2.1367343727	 0.4892627855	 2.6490174173	 0.094685
H	 2.4733325986	 0.8472843495	 0.9503418767	 0.103281
H	 0.1066191942	-0.7757427477	 2.0293280006	 0.055976
105.2025	182.6194	211.547	226.735	267.6768	317.4548	337.4983	357.9062	419.8699	544.6591	572.4333	676.9702	713.5982	766.9712	780.7253	838.2278	859.9448	886.7856	927.5196	938.1379	955.3992	964.0961	978.8137	996.7239	1022.0257	1037.1515	1055.4865	1103.6829	1129.2948	1173.2803	1193.3353	1206.8355	1242.2613	1247.331	1258.1828	1268.2146	1276.2115	1310.8704	1328.8933	1377.4791	1396.004	1421.681	1474.6793	1482.7294	1487.7816	1492.1095	1503.94	1508.7469	1674.5004	3020.5705	3029.2704	3035.7939	3051.3137	3066.9787	3074.2067	3085.6052	3090.9306	3096.747	3101.8253	3110.6075	3124.9276	3160.7461	3187.0835
CC1(C)C=CC2CCC12	CC1(C)C=C[C@H]2CC[C@@H]12	
InChI=1S/C9H14/c1-9(2)6-5-7-3-4-8(7)9/h5-8H,3-4H2,1-2H3	InChI=1S/C9H14/c1-9(2)6-5-7-3-4-8(7)9/h5-8H,3-4H2,1-2H3/t7-,8-/m1/s1
