21
gdb 63187	2.83566	1.33389	1.24085	0.7226	78.02	-0.2375	0.0772	0.3147	1125.9855	0.183365	-424.216947	-424.208372	-424.207428	-424.249471	34.106	
C	-0.2109160984	 1.5732546814	 0.1044909208	-0.472093
C	-0.0320704883	 0.076507307	 0.0022775283	 0.399938
O	-1.1512866627	-0.6574412168	 0.4485131801	-0.470985
C	 0.6369017824	-0.5915657174	-1.1706451572	-0.083901
C	 1.2929289158	 0.2033223769	-2.296451602	-0.24244
C	 2.7424808887	 0.5581334901	-1.9502972999	-0.067685
O	 2.8407979094	 1.123867766	-0.6519267308	-0.240852
C	 2.6096397503	 0.161159453	 0.3670992585	-0.112915
C	 1.3057625189	-0.599003498	 0.2033892985	-0.130903
H	 0.6660461562	 2.1114532107	-0.257435382	 0.14441
H	-1.0911209467	 1.8893433247	-0.4653842009	 0.120431
H	-0.3703136689	 1.8651218258	 1.1505195202	 0.102015
H	-1.2497502343	-0.4937238967	 1.3933165021	 0.275177
H	 0.1583424357	-1.520452411	-1.4608054736	 0.096625
H	 1.2800435089	-0.3841323829	-3.2204393321	 0.100441
H	 0.7340302218	 1.122808447	-2.5036977512	 0.108628
H	 3.3784570488	-0.3407247863	-2.0123691076	 0.087422
H	 3.1442542254	 1.3047130465	-2.6414329807	 0.104756
H	 3.4418949427	-0.563806766	 0.3779893287	 0.091123
H	 2.6417770603	 0.7153839013	 1.3117085119	 0.105248
H	 1.2645526139	-1.538160775	 0.7475903489	 0.085562
136.6166	168.9225	221.739	243.0689	265.3127	325.3054	348.7624	392.3573	417.0596	469.4886	477.0692	542.7854	685.2591	735.7564	797.1119	805.6897	870.7306	922.9776	954.7382	977.5539	987.0374	1043.308	1055.4016	1073.7755	1105.2212	1122.1229	1140.8749	1144.3192	1199.8107	1246.099	1270.0684	1291.9191	1317.9821	1330.345	1340.663	1367.4173	1387.5254	1410.4712	1421.0247	1455.4368	1481.535	1491.1701	1501.9138	1502.8991	1508.6614	2953.8105	2967.9206	3022.7006	3037.7768	3057.3823	3076.4042	3081.9722	3086.2303	3142.1757	3148.4161	3168.5548	3789.1906
CC1(O)C2CCOCC12	C[C@@]1(O)[C@H]2CCOC[C@@H]12	
InChI=1S/C7H12O2/c1-7(8)5-2-3-9-4-6(5)7/h5-6,8H,2-4H2,1H3	InChI=1S/C7H12O2/c1-7(8)5-2-3-9-4-6(5)7/h5-6,8H,2-4H2,1H3/t5-,6+,7+/m0/s1
