17
gdb 49115	3.22743	1.27497	0.97011	2.2928	78.93	-0.2524	-0.0672	0.1852	1178.6704	0.136427	-421.806471	-421.798794	-421.79785	-421.838973	28.796	
O	-0.0936919151	 0.0475855048	 0.1579733781	-0.269653
C	 0.0006913468	 1.2486759007	 0.0208970254	 0.068074
C	 1.2657101874	 1.9585681651	-0.1498541745	 0.091515
C	 1.4404428938	 3.2825441471	-0.2520881738	 0.120536
C	 1.0212579471	 4.6278530539	 0.2812205418	-0.153118
O	 2.3934203092	 4.8119500822	 0.745405239	-0.299243
C	 2.861807272	 3.7054054451	-0.1099994874	 0.112906
C	 3.5519155542	 2.45821125	 0.4682120192	-0.25777
C	 2.6440391527	 1.2979908412	-0.0635827922	-0.31278
H	-0.9017798496	 1.8993762122	 0.0185289708	 0.067058
H	 0.7527007054	 5.3784980132	-0.4729924815	 0.119868
H	 0.2893972549	 4.6416493183	 1.0948482904	 0.131865
H	 3.3660989503	 4.1181893569	-0.9931679021	 0.092355
H	 4.6013186294	 2.3559817989	 0.1816493422	 0.105704
H	 3.4930129409	 2.5006311619	 1.5602472688	 0.12657
H	 2.6187529303	 0.4329958117	 0.6034760126	 0.136144
H	 2.9885492201	 0.9325680566	-1.0385925667	 0.11997
95.3924	147.2479	183.8404	210.9848	278.5822	378.0825	439.2967	495.5795	596.137	629.6197	758.922	771.8902	849.1491	900.5562	922.7101	928.0404	960.469	1006.2259	1038.264	1054.0916	1073.1156	1119.4746	1146.1276	1154.4807	1189.7703	1262.8435	1268.4582	1285.5273	1324.3693	1336.8382	1347.3295	1419.5325	1481.066	1495.2618	1505.2519	1723.7295	1776.209	2882.4661	3017.4042	3024.3237	3038.808	3061.3029	3083.729	3104.1135	3117.9771
O=CC1=C2COC2CC1	O=C[C]1[C]2CO[C@H]2CC1	
InChI=1S/C7H8O2/c8-3-5-1-2-7-6(5)4-9-7/h3,7H,1-2,4H2	InChI=1S/C7H8O2/c8-3-5-1-2-7-6(5)4-9-7/h3,7H,1-2,4H2/t7-/m0/s1
