18
gdb 14343	4.91409	1.55579	1.32628	1.5859	74.38	-0.2361	0.0063	0.2424	962.8881	0.154752	-347.772992	-347.765871	-347.764927	-347.804147	27.784	
C	-0.1429139028	 1.5624525226	 0.0276147008	-0.397787
C	 0.0360971567	 0.0419315471	 0.0245878366	-0.000565
C	 0.8397949355	-0.4919941272	-1.216097022	-0.263393
C	 1.4874956623	-1.7717630096	-0.6718376247	 0.108656
O	 2.9428290145	-1.9990359823	-0.7049920505	-0.308865
C	 2.9794197158	-2.1208536089	 0.7512562256	-0.15634
C	 1.60433249	-1.5048064944	 0.7922386653	 0.186667
C	 0.8807439572	-0.4704716706	 1.1998186551	-0.207316
H	 0.8274092922	 2.0707974642	 0.0532935161	 0.117719
H	-0.6727282277	 1.8952041953	-0.8710727338	 0.116546
H	-0.7208394084	 1.8942404561	 0.8967562186	 0.114083
H	-0.963892635	-0.4165473628	 0.0329759139	 0.082481
H	 0.215130801	-0.6387714031	-2.1021700791	 0.093767
H	 1.6298146344	 0.2260650475	-1.4629867668	 0.114576
H	 0.9743871222	-2.6896608943	-0.9892933596	 0.077508
H	 3.0489571181	-3.1738936652	 1.0553322609	 0.106419
H	 3.7984067858	-1.5531098626	 1.2053627927	 0.118972
H	 0.9315559283	 0.0450765184	 2.1522702808	 0.096874
105.7819	202.0297	243.0738	296.4601	313.4682	401.5261	463.8856	559.476	641.9191	763.8211	812.47	837.5575	869.0481	898.8556	920.7694	941.9154	961.0634	993.106	1044.3867	1052.8455	1093.6744	1116.7699	1139.5024	1147.9589	1189.0172	1236.1425	1253.9294	1288.2207	1307.5279	1335.7396	1351.5269	1363.7595	1408.4758	1477.8403	1496.6725	1499.2502	1510.0801	1745.0409	2988.2728	3005.2842	3012.6514	3027.5621	3045.8674	3072.3661	3096.073	3098.8815	3101.8448	3195.0926
CC1CC2OCC2=C1	C[C@H]1C[C@H]2OC[C]2[CH]1	
InChI=1S/C7H10O/c1-5-2-6-4-8-7(6)3-5/h2,5,7H,3-4H2,1H3	InChI=1S/C7H10O/c1-5-2-6-4-8-7(6)3-5/h2,5,7H,3-4H2,1H3/t5-,7-/m1/s1
