18
gdb 15050	2.86217	1.53731	1.07476	3.1596	72.72	-0.2461	0.0319	0.2779	1118.7264	0.153876	-343.971568	-343.96279	-343.961846	-344.005309	31.324	
C	-0.0775417791	 1.4583916926	-0.1055335107	-0.330775
N	-0.1677614823	 0.0545780357	 0.2901401574	-0.269537
C	-1.4487999907	-0.5794922295	 0.0015709274	-0.131546
C	-1.7974040675	-0.543215403	-1.4451223426	 0.269441
N	-2.0100825558	-0.4978318436	-2.581018877	-0.333822
C	-1.483017688	-2.0116766028	 0.5032905784	 0.024865
C	-1.7570474089	-2.2759837756	 1.9579172069	-0.27199
C	-2.7915103599	-2.6321445145	 0.9198007453	-0.265203
H	 0.9217832671	 1.8300065401	 0.1352498547	 0.127305
H	-0.2713567825	 1.6418118889	-1.1740271688	 0.12638
H	-0.7995589807	 2.0438301836	 0.4746489163	 0.12596
H	 0.5752685503	-0.4781871577	-0.1511056652	 0.227044
H	-2.2235192139	-0.0059441456	 0.5281379765	 0.120158
H	-0.7721160746	-2.6655571809	 0.0055296137	 0.097248
H	-1.2102014453	-3.0771819694	 2.4415373878	 0.119738
H	-1.9453453883	-1.4196395855	 2.5963774071	 0.121588
H	-3.6852709837	-2.0199185821	 0.8590355705	 0.120667
H	-2.9560382262	-3.6772779805	 0.6850191624	 0.122481
70.6186	97.7736	142.2649	167.6759	192.0425	255.7507	326.4598	368.607	443.3237	525.3233	604.3807	741.0602	774.6385	830.1501	874.4514	906.4291	939.8886	995.7963	1011.8183	1064.6549	1083.8442	1115.0029	1134.1139	1158.2308	1166.1342	1195.6689	1225.5862	1227.4641	1288.9445	1339.2673	1416.0484	1458.6178	1473.983	1485.9802	1493.2845	1509.6858	1521.1581	2339.6847	2983.8888	3023.6984	3066.2448	3114.0179	3136.566	3140.7616	3146.6542	3215.5024	3229.9086	3520.5699
CNC(C#N)C1CC1	CN[C@@H](C#N)C1CC1	
InChI=1S/C6H10N2/c1-8-6(4-7)5-2-3-5/h5-6,8H,2-3H2,1H3	InChI=1S/C6H10N2/c1-8-6(4-7)5-2-3-5/h5-6,8H,2-3H2,1H3/t6-/m0/s1
