15
gdb 49673	2.38931	1.79317	1.40146	5.1792	67.8	-0.2615	-0.0155	0.246	950.9501	0.113631	-453.946402	-453.939006	-453.938062	-453.97866	27.251	
N	-0.2241364725	 1.1036828625	-0.4403352217	-0.535029
C	-0.1695123838	-0.1203318946	-0.1542181417	 0.447093
O	 0.9722582991	-0.8889934188	-0.1426038948	-0.248348
C	 0.7787393762	-2.0821958853	 0.6306302608	-0.112518
C	-0.7254268484	-2.2604139157	 0.7588603966	-0.081999
C	-1.3284830243	-0.9689574434	 0.2579177495	-0.121019
N	-1.4846080807	-2.2149501121	-0.4624861351	-0.076557
C	-1.0656601175	-2.5077834472	-1.7561139579	 0.157992
O	-1.1925856803	-1.7773427942	-2.7023504777	-0.273884
H	 0.7068152129	 1.4735781871	-0.6397020052	 0.23289
H	 1.2845925815	-2.9049583888	 0.1174908166	 0.133653
H	 1.2293978614	-1.9560166093	 1.622784206	 0.129391
H	-1.1331522399	-2.8261959902	 1.5901814308	 0.123268
H	-2.216103587	-0.4949403774	 0.6568594664	 0.136613
H	-0.6768921468	-3.5426483626	-1.8257403526	 0.088455
95.4476	121.8598	179.6253	231.2665	306.7251	427.9175	449.6304	577.6558	662.8825	697.7446	768.9088	831.8808	868.5551	899.2473	917.9367	946.3744	993.5931	1033.5725	1045.3525	1066.8097	1090.8818	1112.7854	1136.8028	1226.544	1266.791	1300.1116	1326.977	1395.736	1416.9154	1432.234	1513.5294	1788.8505	1817.5891	2943.2889	3034.4632	3092.1073	3170.7712	3208.5683	3480.2485
N=C1OCC2C1N2C=O	[NH][C]1OC[C@H]2[C@@H]1N2C=O	
InChI=1S/C5H6N2O2/c6-5-4-3(1-9-5)7(4)2-8/h2-4,6H,1H2	InChI=1S/C5H6N2O2/c6-5-4-3(1-9-5)7(4)2-8/h2-4,6H,1H2/t3-,4-,7?/m0/s1
