15
gdb 56947	3.93975	1.0379	0.90104	1.6851	74.1	-0.2649	0.007	0.2719	1254.5476	0.108594	-420.517753	-420.508596	-420.507652	-420.551943	33.569	
O	-0.2280625697	 1.3507756137	-0.1510908527	-0.403836
C	-0.0265725766	-0.0434172287	-0.1347901591	-0.095014
C	 0.8243922278	-0.5000606754	-1.2458390344	 0.308522
C	 1.5321004739	-0.8748016853	-2.1416786864	-0.445363
C	 0.5841088891	-0.5088555104	 1.1919891829	 0.038491
O	 1.4062756644	 0.4519353305	 1.8455981298	-0.249513
C	 0.187263132	 0.0333413667	 2.5082756629	-0.162107
C	-0.8538165103	 0.9986797671	 2.7237849882	 0.340313
C	-1.7371196476	 1.7646418639	 3.0012689922	-0.411314
H	 0.5392955676	 1.7399130172	 0.291401148	 0.296446
H	-1.017798288	-0.5041369334	-0.2384932174	 0.131019
H	 2.1498308393	-1.1979267822	-2.9431687219	 0.202696
H	 0.9893078132	-1.5205292418	 1.1705550143	 0.117068
H	 0.3804606996	-0.6097552171	 3.3669667875	 0.125891
H	-2.5184303148	 2.4530590252	 3.2111357759	 0.206701
47.3766	105.6275	153.8722	194.042	238.8974	262.8039	315.2796	410.9456	418.6408	536.0444	551.1872	592.5803	632.3964	636.0583	671.969	680.563	703.1144	806.0869	836.6274	911.3284	988.4212	1008.0417	1078.3756	1130.0319	1148.6841	1253.6609	1292.9014	1315.405	1380.0842	1431.6882	1442.8908	2234.0799	2242.5971	3029.2911	3107.6572	3120.2927	3501.7674	3502.4582	3753.2794
OC(C#C)C1OC1C#C	O[C@@H](C#C)[C@H]1O[C@H]1C#C	
InChI=1S/C7H6O2/c1-3-5(8)7-6(4-2)9-7/h1-2,5-8H	InChI=1S/C7H6O2/c1-3-5(8)7-6(4-2)9-7/h1-2,5-8H/t5-,6-,7+/m0/s1
