15
gdb 54778	4.05864	1.16585	1.09176	3.0134	66.86	-0.2486	-0.012	0.2366	1097.4249	0.112496	-453.915745	-453.908014	-453.90707	-453.94832	29.245	
N	-0.1145850813	 1.3236996009	-0.1987327102	-0.542535
C	-0.0468960446	-0.0508216411	-0.1124956821	 0.41091
O	 0.8551628618	-0.7140289574	-0.5801035609	-0.374206
N	-1.1169999977	-0.6058118418	 0.6198632851	-0.164553
C	-2.5653629132	-0.4353254715	 0.1511985658	-0.169988
C	-2.286621908	-1.4889086837	-0.9679938341	-0.240375
C	-1.5273518751	-2.0269733628	 0.2933169118	-0.139984
C	-2.8222235428	-1.6635616317	 1.0621899914	 0.486414
O	-3.6032272463	-2.0975204039	 1.8401263864	-0.304637
H	 0.7501709751	 1.7616258862	-0.4772676826	 0.265662
H	-0.6379102313	 1.8131443439	 0.5102618446	 0.260865
H	-3.0524845536	 0.534703815	 0.0906059137	 0.111062
H	-3.1307518781	-2.0663675062	-1.3532975368	 0.120933
H	-1.6212654438	-1.1422395798	-1.7584422137	 0.150337
H	-0.8355113711	-2.8583214462	 0.3809135216	 0.130093
80.7494	118.7628	165.3788	220.4893	422.8755	447.7483	456.0933	509.145	535.1057	617.2279	678.5434	702.0539	751.4314	773.1841	834.2957	842.8717	888.543	960.0128	993.9865	1019.3931	1080.2011	1109.1177	1113.6022	1141.9762	1162.264	1199.6016	1204.8678	1252.6045	1368.9287	1496.967	1618.9401	1799.6271	1952.5469	3070.3318	3157.3268	3160.5255	3188.4682	3582.7343	3701.4029
NC(=O)N1C2CC1C2=O	NC(=O)N1[C@H]2C[C@@H]1C2=O	
InChI=1S/C5H6N2O2/c6-5(9)7-2-1-3(7)4(2)8/h2-3H,1H2,(H2,6,9)	InChI=1S/C5H6N2O2/c6-5(9)7-2-1-3(7)4(2)8/h2-3H,1H2,(H2,6,9)/t2-,3+
