20
gdb 113898	4.01271	0.76686	0.73954	3.5729	76.58	-0.24	0.0311	0.2712	1609.6589	0.169606	-440.309039	-440.299009	-440.298065	-440.345413	36.008	
C	 0.4264090123	 1.1367317753	 0.5696231487	-0.37665
C	-0.2874180925	 0.1396884331	-0.3522580105	-0.216102
C	 0.684036038	-0.5784710762	-1.256051988	 0.075882
O	 1.5103623248	-1.5979072069	-0.6673311317	-0.272199
C	 0.5801065143	-1.9808969463	-1.6986090846	 0.038373
C	-0.5280290547	-2.9369895565	-1.3146662988	-0.332172
C	-0.0224453108	-4.3434054194	-0.9574851866	 0.375422
N	 0.9379224956	-4.3556160956	 0.0102684078	-0.507678
O	-0.4767153005	-5.3491263455	-1.4649864455	-0.358599
H	 1.1519875219	 0.6213098474	 1.2058834922	 0.132884
H	 0.9659785979	 1.8952603163	-0.007600587	 0.119121
H	-0.2883473807	 1.6534723524	 1.2161104587	 0.118759
H	-0.8472747339	-0.5815315639	 0.2499054138	 0.108284
H	-1.0170369068	 0.6658791254	-0.9813380776	 0.108454
H	 1.2494113116	 0.0883592513	-1.912132063	 0.092984
H	 1.0738029115	-2.2339783	-2.6386671367	 0.104193
H	-1.0915765247	-2.5523468939	-0.4596115685	 0.123862
H	-1.2204183098	-3.0553648943	-2.1512497788	 0.132801
H	 1.3911212487	-3.4998192675	 0.2911684785	 0.275583
H	 1.3641682878	-5.2395336151	 0.2361954778	 0.256801
40.6279	45.881	75.7738	152.6806	196.7112	225.6081	268.919	351.4566	396.5003	438.675	481.0457	513.1236	567.6929	598.8516	714.3634	744.8654	810.6912	828.5491	872.9132	927.5514	952.906	990.7685	1035.1174	1092.5273	1112.1724	1130.8912	1163.7383	1187.8689	1224.7381	1289.8515	1296.8446	1309.1807	1343.9157	1356.3279	1407.0779	1415.0558	1459.1106	1473.5515	1486.7211	1498.0916	1508.4796	1621.2537	1807.4756	3031.6388	3038.3524	3065.0136	3072.893	3086.8065	3095.8728	3110.6999	3118.3447	3125.4327	3573.3741	3713.7596
CCC1OC1CC(N)=O	CC[C@H]1O[C@H]1CC(=O)N	
InChI=1S/C6H11NO2/c1-2-4-5(9-4)3-6(7)8/h4-5H,2-3H2,1H3,(H2,7,8)	InChI=1S/C6H11NO2/c1-2-4-5(9-4)3-6(7)8/h4-5H,2-3H2,1H3,(H2,7,8)/t4-,5+/m1/s1
