16
gdb 39710	4.47641	1.55126	1.52368	3.3541	70.73	-0.2288	0.0593	0.288	891.1308	0.125709	-400.618353	-400.612319	-400.611375	-400.648574	25.245	
C	-0.0492488902	 1.5432682911	 0.002488819	-0.289444
O	 1.1435107326	 0.7342685579	-0.0092123016	-0.280684
C	-0.1105071901	 0.0870935112	 0.0059152909	 0.520989
C	-0.4935690296	-0.9670106242	 1.0385164262	-0.126415
C	-1.9691272116	-1.3096737749	 0.8074905881	-0.100651
C	-1.9863985737	-1.3129049672	-0.7489957906	-0.100612
C	-1.6039595299	-2.5335933085	 0.0276438697	-0.024494
N	-0.1477219183	-2.0767017478	 0.0103900317	-0.183776
C	-0.5163927635	-0.9708882846	-1.013959174	-0.126419
H	-0.2246707711	 2.0979025026	 0.9232866195	 0.118224
H	-0.2450850498	 2.0944313928	-0.9162755545	 0.118225
H	-0.0487415306	-1.0121720943	 2.0313524926	 0.0903
H	-2.8486578892	-1.0889374363	 1.3973645578	 0.096239
H	-2.8788082592	-1.0946347158	-1.3201442363	 0.096236
H	-1.9508441265	-3.5582296041	 0.0336325013	 0.101993
H	-0.0937189693	-1.0197961179	-2.01624929	 0.090288
148.3587	265.3069	318.0844	476.3291	553.3154	585.7782	745.3003	783.996	803.5709	808.38	813.708	881.0559	891.5397	907.3925	908.1704	918.2899	938.8724	979.4343	1009.3294	1021.2505	1041.8627	1063.8205	1098.803	1116.5257	1144.5796	1152.7054	1172.6925	1176.5201	1217.9007	1222.364	1254.6391	1273.932	1356.658	1459.367	1545.6915	3082.8179	3131.926	3133.6869	3168.6506	3194.7723	3198.5132	3213.818
C1OC11C2C3C4C3N2C14	C1O[C@]21[C@H]1[C@H]3[C@@H]4[C@H]3N1[C@H]24	
InChI=1S/C7H7NO/c1-7(9-1)5-2-3-4(2)8(5)6(3)7/h2-6H,1H2	InChI=1S/C7H7NO/c1-7(9-1)5-2-3-4(2)8(5)6(3)7/h2-6H,1H2/t2-,3+,4-,5+,6-,7+
