19
gdb 90186	3.98412	1.51983	1.36717	2.209	78.04	-0.2281	0.0759	0.3039	989.5848	0.160295	-385.785144	-385.778293	-385.777349	-385.816024	28.829	
C	-0.0898249429	 1.5376355645	-0.0671451421	-0.405298
C	 0.0249448849	 0.0176069886	 0.0382821944	 0.037108
C	 0.9345213806	-0.6313230122	-1.096409046	-0.377628
C	 1.8743107127	-1.3101970725	-0.134395369	 0.485413
O	 3.0451790431	-2.1607256735	-0.0274385977	-0.399513
C	 2.624755746	-1.8472859905	 1.3823372524	 0.001013
C	 2.2437706355	-0.3838669338	 1.0587616344	-0.09317
C	 0.7303195	-0.4722547404	 1.3557793402	-0.112014
C	 1.11378467	-1.9384486767	 1.0673017307	-0.102331
H	 0.8962401441	 2.0141408291	-0.0286556758	 0.118183
H	-0.5672175341	 1.8382546584	-1.0055530273	 0.117462
H	-0.6876516342	 1.9437438944	 0.7561215315	 0.115125
H	-0.9788226879	-0.4198447031	-0.0143954332	 0.076617
H	 0.3787200125	-1.3191383029	-1.7386712466	 0.110592
H	 1.4141443691	 0.1273532088	-1.7212828613	 0.109459
H	 3.2377131126	-2.2868934683	 2.1675182436	 0.093552
H	 2.9091938674	 0.4767101917	 1.0038979067	 0.081192
H	 0.2859321561	-0.1442547967	 2.2964857712	 0.064137
H	 0.4930644046	-2.832667325	 1.0186900139	 0.0801
132.1082	239.0471	265.6811	362.8176	425.104	461.9277	542.7716	639.2048	692.5242	742.4304	760.993	792.1033	804.7587	864.876	888.8284	897.2927	919.4999	935.9525	943.668	1011.6564	1012.9642	1029.5102	1075.7038	1087.1878	1110.7319	1136.8788	1143.913	1171.0229	1178.1044	1213.5777	1218.2143	1240.7818	1259.4742	1300.5819	1329.539	1347.5526	1368.751	1412.1527	1495.6424	1497.8851	1503.1266	3027.6585	3034.6095	3057.5122	3093.9599	3098.0214	3101.1917	3107.3978	3120.7741	3124.1611	3139.4951
CC1CC23OC4C2C1C34	C[C@H]1C[C@@]23O[C@H]4[C@@H]2[C@@H]1[C@@H]34	
InChI=1S/C8H10O/c1-3-2-8-5-4(3)6(8)7(5)9-8/h3-7H,2H2,1H3	InChI=1S/C8H10O/c1-3-2-8-5-4(3)6(8)7(5)9-8/h3-7H,2H2,1H3/t3-,4-,5+,6-,7+,8-/m0/s1
