15
gdb 73745	2.10889	1.77961	0.97677	8.1891	77.59	-0.2405	-0.0388	0.2016	1133.5721	0.113796	-416.883047	-416.874637	-416.873693	-416.916394	30.48	
N	 0.0143696427	 1.3116889965	 0.0065145733	-0.583551
C	-0.0263596433	-0.0265549304	-0.0000620425	 0.335338
C	-1.1495861088	-0.8144664784	 0.0016601278	-0.024891
C	-2.4631023675	-0.2920897759	 0.0109856866	 0.191491
N	-3.5132048339	 0.2004425649	 0.0187459697	-0.364239
C	-0.7850301282	-2.2387228956	-0.0074721687	 0.315136
O	-1.523691184	-3.1935706448	-0.0083712878	-0.327836
C	 0.7556754092	-2.3062917698	-0.015061889	-0.332615
C	 1.2424699475	-0.8465368434	-0.0106682411	-0.323675
H	 0.8879083254	 1.8081424238	 0.00453056	 0.274643
H	-0.8379403345	 1.8499361085	 0.0134931044	 0.28892
H	 1.0930559614	-2.8683872829	 0.8596219502	 0.140995
H	 1.0848350169	-2.8604694649	-0.8978778135	 0.140962
H	 1.8439812767	-0.5955742781	-0.8920132634	 0.134674
H	 1.8534028904	-0.6039289194	 0.866519974	 0.134648
90.0355	118.1982	121.372	193.1029	247.8878	312.1171	441.4553	484.3619	521.9283	529.3219	570.449	588.2842	651.388	685.7418	686.1251	844.25	940.2311	1009.6316	1010.9832	1024.5684	1159.1515	1171.7307	1239.1702	1266.7325	1271.3454	1316.0957	1445.4528	1460.858	1482.1776	1622.6095	1678.7956	1817.3123	2327.0154	3038.109	3069.8307	3074.107	3116.53	3596.9058	3725.3023
NC1=C(C#N)C(=O)CC1	NC1=C(C#N)C(=O)CC1	
InChI=1S/C6H6N2O/c7-3-4-5(8)1-2-6(4)9/h1-2,8H2	InChI=1S/C6H6N2O/c7-3-4-5(8)1-2-6(4)9/h1-2,8H2
