19
gdb 38658	3.15771	1.88884	1.59926	1.6746	78.61	-0.2257	0.0149	0.2405	904.5471	0.163352	-385.881792	-385.875538	-385.874594	-385.912005	27.149	
C	-0.0803809175	 1.6012485069	 0.0928676593	-0.249414
C	 1.446970638	 1.4058103479	-0.0480611368	 0.095648
O	 1.8062623324	 0.776341267	 1.1902668505	-0.293973
C	 0.8165891056	-0.2984215651	 1.2666692904	 0.066906
C	 1.4871286198	-1.6394033458	 1.1150698244	-0.066447
C	 2.1108827754	-1.9178778378	-0.0275713267	-0.047319
C	 2.1502249094	-0.9303796355	-1.1663413381	-0.302067
C	 1.1400748283	 0.2133686626	-0.9994974192	-0.002541
C	-0.0345740766	 0.0498583481	 0.0266961656	-0.082632
H	-0.428195456	 2.07181384	 1.0154378743	 0.097779
H	-0.5562315279	 2.0487046522	-0.7819608053	 0.097954
H	 2.1561116607	 2.2017010697	-0.2748695486	 0.073805
H	 0.2726111283	-0.207833039	 2.2111449563	 0.070094
H	 1.4518859655	-2.3472490884	 1.9367864448	 0.08623
H	 2.6124068952	-2.8707153722	-0.1757277691	 0.090467
H	 3.164014783	-0.5143344186	-1.2626802648	 0.117774
H	 1.9636303453	-1.4613616786	-2.1090750423	 0.103627
H	 0.771843227	 0.5691580261	-1.9643978959	 0.073661
H	-0.9072715158	-0.5735447596	-0.1620112188	 0.070447
188.3548	275.0296	364.5966	451.2323	485.372	496.9608	621.3304	680.5067	705.9532	759.2422	818.9215	849.5512	855.9006	890.9195	916.0073	924.9729	953.6531	970.0025	993.951	1000.576	1010.9917	1026.48	1067.4798	1090.2562	1103.5661	1120.0793	1159.9513	1184.8199	1222.6153	1245.0363	1249.7009	1267.5607	1286.4771	1325.9148	1333.8534	1362.8898	1383.2118	1408.925	1469.8785	1491.453	1712.4283	3001.2597	3030.88	3063.1368	3066.0384	3085.4077	3124.7191	3129.4793	3132.6502	3156.7188	3186.3636
C1C2OC3C=CCC2C13	C1[C@H]2O[C@@H]3C=CC[C@H]2[C@H]13	
InChI=1S/C8H10O/c1-2-5-6-4-8(5)9-7(6)3-1/h1,3,5-8H,2,4H2	InChI=1S/C8H10O/c1-2-5-6-4-8(5)9-7(6)3-1/h1,3,5-8H,2,4H2/t5-,6-,7+,8+/m0/s1
