18
gdb 76946	2.70234	1.18533	1.08823	1.7805	76.44	-0.2439	-0.0609	0.183	1188.7639	0.14371	-439.07353	-439.063687	-439.062743	-439.10819	34.731	
C	-0.3662465616	 1.4160169256	-0.1206433056	-0.33318
N	-0.0084569181	 0.0108288016	 0.0748265271	-0.12972
C	 1.2845103349	-0.5183020756	-0.3362157486	-0.157604
C	 2.4161922199	 0.2940252308	-0.8594436469	 0.15201
O	 2.616998983	 1.4700266467	-0.6554648492	-0.26967
C	 0.8745545889	-0.3954767983	 1.147562269	 0.187854
C	 1.5461217189	 0.5601231553	 2.1047132868	-0.495257
C	 0.4568908061	-1.7202062337	 1.7343778133	 0.150074
O	 0.787450766	-2.11593786	 2.8213004763	-0.253831
H	 0.4663960103	 2.1178607237	-0.032324412	 0.154701
H	-0.8010177888	 1.5139687883	-1.1193742605	 0.133477
H	-1.140174255	 1.6668527632	 0.6102742004	 0.132048
H	 1.2323699788	-1.5065191276	-0.7934277344	 0.103522
H	 3.1049776113	-0.2949569693	-1.5040349617	 0.093868
H	 2.0857767766	 1.3528673138	 1.5889359083	 0.161088
H	 0.7957900752	 1.0123519646	 2.7616940174	 0.133876
H	 2.2360185104	-0.0001902928	 2.739567635	 0.148306
H	-0.2006476969	-2.3084190163	 1.0576195553	 0.088439
83.5347	118.0095	153.7809	162.8217	188.4455	211.1613	238.675	275.1691	292.6337	346.3891	433.3948	465.5011	575.6707	669.3639	753.7258	777.1541	856.4337	941.5658	973.5527	1009.8687	1049.3164	1093.3679	1101.2085	1130.739	1152.1332	1171.6322	1297.0206	1342.4271	1384.9886	1401.5218	1422.2739	1429.3434	1450.4931	1479.2362	1493.1464	1498.5836	1513.0886	1791.9614	1828.7381	2891.4573	2901.8829	3042.2498	3054.3056	3105.8933	3115.0439	3120.826	3124.2563	3167.607
CN1C(C=O)C1(C)C=O	CN1[C@@H](C=O)[C@]1(C)C=O	
InChI=1S/C6H9NO2/c1-6(4-9)5(3-8)7(6)2/h3-5H,1-2H3	InChI=1S/C6H9NO2/c1-6(4-9)5(3-8)7(6)2/h3-5H,1-2H3/t5-,6-,7?/m0/s1
