15
gdb 126366	5.8204	0.87136	0.80523	4.6135	69.58	-0.274	-0.0816	0.1923	1398.1219	0.111796	-453.960394	-453.951973	-453.951028	-453.994843	28.876	
C	-0.4376883268	 1.371294162	-0.1297083617	-0.385601
C	 0.1544214059	-0.0333078439	 0.086296427	-0.301684
C	 0.8265719799	-0.5659818484	-1.1308921134	 0.421845
N	 2.0869147095	-0.8022428962	-1.3384478293	-0.337868
C	 2.0895822554	-1.2574753879	-2.6379469776	 0.247327
C	 3.3506297939	-1.6614602042	-3.3178096055	 0.096987
O	 3.41668542	-2.063136525	-4.4492713223	-0.227522
N	 0.9091857228	-1.3024759892	-3.2064676709	-0.140616
O	 0.0636613411	-0.8430310881	-2.2074843307	-0.184241
H	 0.3441932641	 2.0890447478	-0.3928502082	 0.138481
H	-1.180569101	 1.3643173131	-0.9313436226	 0.144549
H	-0.9240478378	 1.7156561227	 0.7863422506	 0.13163
H	 0.8983900111	-0.0237870634	 0.8857163672	 0.147065
H	-0.6401352521	-0.7289432156	 0.3785164416	 0.14161
H	 4.238256524	-1.5520205836	-2.6625513441	 0.108038
32.4922	83.0492	152.1628	174.0568	227.2445	255.6117	350.239	385.2141	501.2264	675.48	697.0982	758.7238	785.9722	802.8305	956.6638	970.8507	1012.8068	1040.0458	1057.6114	1080.185	1105.4502	1250.0836	1307.5402	1342.2611	1354.4162	1412.2196	1434.2185	1475.0337	1497.9831	1504.9351	1525.2475	1616.9914	1827.1602	2938.6007	3050.3152	3054.5391	3112.694	3127.8555	3135.6083
CCC1=NC(C=O)=NO1	CCc1nc(C=O)no1	
InChI=1S/C5H6N2O2/c1-2-5-6-4(3-8)7-9-5/h3H,2H2,1H3	InChI=1S/C5H6N2O2/c1-2-5-6-4(3-8)7-9-5/h3H,2H2,1H3
