17
gdb 77027	3.03924	1.00415	0.9144	1.6536	81.17	-0.2502	0.0298	0.28	1319.8107	0.132284	-384.601271	-384.591539	-384.590595	-384.636349	35.622	
O	-0.2065860256	 1.3942862513	 0.1132479087	-0.416554
C	-0.1313444247	 0.0093075863	 0.0332651686	 0.110096
C	-1.4059767452	-0.7821178998	-0.0420069135	-0.057102
C	-2.7536349425	-0.0793650122	 0.0092893836	-0.370749
C	-3.3444158764	-0.129482872	 1.3425405265	 0.300843
C	-3.8226650949	-0.1901706561	 2.4432986397	-0.442601
C	-0.5120192023	-0.6717094968	-1.2823329298	-0.288987
C	-0.8667513557	 0.1729353541	-2.3811130197	 0.305037
C	-1.1210217008	 0.9322990568	-3.2811644204	-0.445203
H	-0.042992105	 1.7597836573	-0.7655265806	 0.294851
H	 0.7072336981	-0.4166350922	 0.5801666582	 0.103991
H	-1.3885641498	-1.759073444	 0.4305839628	 0.107371
H	-2.6246268316	 0.9632270672	-0.2969014509	 0.147279
H	-3.4387048927	-0.5380499947	-0.7145325831	 0.134163
H	-4.2493005771	-0.2289537545	 3.4146194271	 0.193713
H	 0.0458708359	-1.5643645077	-1.5485121368	 0.120125
H	-1.3699968997	 1.5713512071	-4.0921187203	 0.203726
42.5397	86.5609	119.7983	165.049	217.3322	239.4172	317.949	335.8578	383.3379	453.4625	566.5882	597.4101	612.4582	613.0286	642.3519	647.5302	662.8254	782.9323	783.726	886.7139	926.1436	969.8716	1010.6473	1039.816	1100.5367	1124.2126	1155.5707	1231.5714	1247.488	1312.46	1352.6177	1365.5995	1389.7226	1425.4071	1461.3449	2225.317	2241.0052	3032.6382	3085.7117	3125.1505	3150.8236	3166.1564	3500.7615	3507.8633	3760.6359
OC1C(CC#C)C1C#C	O[C@H]1[C@@H](CC#C)[C@H]1C#C	
InChI=1S/C8H8O/c1-3-5-7-6(4-2)8(7)9/h1-2,6-9H,5H2	InChI=1S/C8H8O/c1-3-5-7-6(4-2)8(7)9/h1-2,6-9H,5H2/t6-,7+,8-/m1/s1
