15
gdb 62285	3.37728	1.57575	1.35438	3.2288	68.09	-0.2503	0.0184	0.2687	936.1185	0.113355	-416.739156	-416.732014	-416.73107	-416.770495	28.272	
N	-0.0767415351	 1.4545059165	-0.0135381932	-0.57827
C	-0.0369403368	 0.0136624619	-0.0377570509	 0.17588
C	 0.8280036598	-0.5075021223	 1.01926431	 0.266308
N	 1.5424807782	-0.9184012947	 1.8296010188	-0.336028
C	-1.383986996	-0.7217823479	-0.0847847378	-0.128326
C	-1.7231228714	-0.7901431569	-1.5807127112	 0.049738
O	-0.6885311023	-0.1067058646	-2.3011497741	-0.288097
C	 0.2427606297	-0.7572585441	-1.4045981884	 0.011342
C	-0.8280520442	-1.8202227911	-0.9908311784	-0.132267
H	 0.8535313323	 1.8490640451	 0.0849891	 0.240141
H	-0.4616966103	 1.7676530595	-0.9013109591	 0.247853
H	-2.1227123583	-0.7922410731	 0.7019091543	 0.115834
H	-2.7233761504	-0.8193385083	-1.9897215791	 0.127996
H	 1.2429856545	-0.8911143996	-1.8088364612	 0.10652
H	-0.8424398498	-2.8973942205	-0.9289462197	 0.121376
146.2272	152.1646	256.7737	293.6694	345.8334	495.0325	507.4763	539.8086	607.7072	667.7505	780.1643	786.846	802.7973	826.5708	864.1464	870.4197	939.6902	952.7148	964.551	999.2353	1028.8788	1051.9553	1068.0831	1099.3994	1146.2045	1182.0784	1204.7508	1237.0636	1295.9105	1355.3169	1369.8941	1652.7648	2357.4943	3160.1346	3216.0502	3222.6101	3242.393	3488.0313	3578.3986
NC1(C#N)C2C3OC1C23	N[C@@]1(C#N)[C@H]2[C@H]3O[C@@H]1[C@@H]23	
InChI=1S/C6H6N2O/c7-1-6(8)3-2-4(3)9-5(2)6/h2-5H,8H2	InChI=1S/C6H6N2O/c7-1-6(8)3-2-4(3)9-5(2)6/h2-5H,8H2/t2-,3+,4-,5+,6-/m0/s1
