17
gdb 123838	3.74416	1.49725	1.09878	4.9035	80.	-0.2235	-0.0356	0.1879	1066.9527	0.140014	-380.911307	-380.904611	-380.903667	-380.942421	26.512	
C	 0.0953537311	 1.4503986187	-0.3471265634	-0.212177
C	 1.4022790343	 1.9999240978	 0.2864708571	-0.338266
C	 2.1335573325	 0.741530193	 0.6874609205	 0.264125
C	 3.4570296145	 0.5172103416	 1.0494866605	-0.091542
N	 3.9231302734	-0.6901714162	 1.3850151759	-0.203081
N	 3.1047435812	-1.7386524759	 1.3871613103	-0.203081
C	 1.819655365	-1.5805216407	 1.0537804608	-0.091542
C	 1.2799695967	-0.3520489809	 0.6896992865	 0.264125
C	-0.1191233513	 0.0507699164	 0.2904599408	-0.338266
H	-0.7574290133	 2.1163356218	-0.1997409285	 0.109038
H	 0.2385699855	 1.3364030601	-1.4263779137	 0.116906
H	 1.9744338859	 2.6338271099	-0.397001744	 0.121635
H	 1.1883409221	 2.6078169502	 1.1755906486	 0.125006
H	 4.1934300155	 1.3163737544	 1.0718007291	 0.115238
H	 1.2232652367	-2.4888708727	 1.0795895283	 0.115238
H	-0.759004897	 0.1129629354	 1.1806963544	 0.125006
H	-0.596481537	-0.6599179254	-0.3902609831	 0.121635
134.4691	177.1279	246.3396	370.1618	416.2296	516.164	530.2623	606.3065	641.9387	775.2447	787.3521	866.7745	869.0089	902.6085	908.9067	925.279	978.9978	1004.6923	1054.4995	1064.2027	1144.7793	1156.5141	1186.3117	1201.5416	1230.8495	1257.7658	1293.8253	1303.0506	1324.2014	1338.2781	1364.4474	1477.9974	1479.0249	1499.5783	1504.2381	1590.7176	1615.3728	3023.6929	3024.5554	3054.9274	3083.9353	3086.2365	3113.1905	3162.5857	3164.8071
C1CC2=CN=NC=C2C1	C1Cc2cnncc2C1	
InChI=1S/C7H8N2/c1-2-6-4-8-9-5-7(6)3-1/h4-5H,1-3H2	InChI=1S/C7H8N2/c1-2-6-4-8-9-5-7(6)3-1/h4-5H,1-3H2
