18
gdb 77297	3.52054	0.87901	0.74265	1.8225	74.59	-0.2465	-0.0366	0.2099	1483.2615	0.143965	-439.082701	-439.073171	-439.072227	-439.118207	33.295	
C	 0.0484028358	 1.5695315091	-0.1729673475	-0.397987
C	 0.091199454	 0.0664861299	 0.0427598032	-0.057965
N	 0.7095156985	-0.7505805297	-1.038351471	-0.111893
C	-0.1587243714	-1.4590963112	-1.9510567292	-0.243057
C	 0.6182415201	-2.0046333151	-3.1407311615	 0.156388
O	 0.3599511588	-3.0338712801	-3.7056545508	-0.231791
C	 1.529049835	-1.5456203605	-0.0916459579	-0.298094
C	 1.1485668838	-0.5262337617	 0.9916581049	 0.384995
O	 1.5324317473	-0.2664795894	 2.0907986492	-0.282412
H	 1.0353245561	 1.9464149551	-0.4533326177	 0.130813
H	-0.6588893559	 1.8310961085	-0.9666473652	 0.123152
H	-0.27179569	 2.0696798507	 0.7460277949	 0.137786
H	-0.9047780154	-0.3109346117	 0.3360501719	 0.094168
H	-0.7305967108	-2.2848723758	-1.4915207221	 0.10923
H	-0.8865364048	-0.7442254825	-2.3624475427	 0.13432
H	 1.4578417763	-1.3462844242	-3.4586546267	 0.087792
H	 1.1230025193	-2.5458176391	 0.1329445882	 0.125633
H	 2.5894052835	-1.6415277124	-0.34572509	 0.138922
53.531	76.1594	85.7034	162.3438	190.9234	192.6859	281.8651	344.9558	374.6394	476.9845	497.3032	572.5721	662.2785	739.7087	781.6022	827.1116	905.6712	972.7401	1026.0068	1047.2265	1074.1662	1094.9114	1122.8293	1138.0137	1154.9408	1207.6943	1237.3851	1270.2768	1297.27	1340.7663	1358.5828	1402.2613	1405.3901	1452.2266	1475.9896	1484.5503	1494.6399	1841.0934	1920.9568	2887.1618	2947.9401	2952.1858	2978.4256	3028.0097	3040.6128	3075.9835	3110.5535	3126.6855
CC1N(CC=O)CC1=O	C[C@H]1N(CC=O)CC1=O	
InChI=1S/C6H9NO2/c1-5-6(9)4-7(5)2-3-8/h3,5H,2,4H2,1H3	InChI=1S/C6H9NO2/c1-5-6(9)4-7(5)2-3-8/h3,5H,2,4H2,1H3/t5-/m1/s1
