15
gdb 22907	2.35415	1.5999	1.07123	2.4662	67.87	-0.2577	-0.0541	0.2035	1088.3471	0.112621	-491.041005	-491.032793	-491.031849	-491.074156	30.284	
O	 0.0129504387	 1.2801399832	 0.0431028943	-0.33771
N	 0.0107946534	-0.0933763315	-0.0139869723	-0.224344
C	-1.1509364052	-0.6234430632	-0.0018384827	 0.269733
C	-1.2839244337	-2.1295797928	-0.0034472762	 0.033099
O	-1.1786400342	-2.6595201944	 1.3117722482	-0.429277
C	-2.7330318218	-2.2984217982	-0.4627769677	-0.100166
O	-3.4094828163	-1.0689161488	-0.1435460563	-0.249047
C	-2.5188543878	-0.0464926708	 0.0403549059	 0.37499
N	-2.839495888	 1.1625530779	 0.2256726103	-0.524955
H	 0.953875368	 1.4899277656	 0.0004045796	 0.31533
H	-0.5693117561	-2.607691458	-0.6835793127	 0.094145
H	-0.3479043016	-2.3410972305	 1.6830446953	 0.292153
H	-2.796276484	-2.4687774348	-1.543130562	 0.118519
H	-3.2273865062	-3.1118732739	 0.0703852223	 0.139574
H	-3.8574855252	 1.2586778601	 0.205018904	 0.227956
62.2161	150.4233	167.3476	221.6544	319.2811	342.7461	368.9821	426.1624	474.7313	519.907	532.3214	683.1917	744.3964	758.0485	831.5861	890.4618	897.3991	972.6075	1017.9317	1043.8019	1093.1043	1119.3987	1197.4225	1221.9317	1249.1858	1297.4194	1335.1653	1390.9925	1411.973	1434.4416	1505.4405	1733.0877	1746.5381	3035.4964	3052.0036	3129.0182	3461.2235	3791.5587	3804.1604
ON=C1C(O)COC1=N	ON=C1[C@@H](O)CO[C]1[NH]	
InChI=1S/C4H6N2O3/c5-4-3(6-8)2(7)1-9-4/h2,5,7-8H,1H2	InChI=1S/C4H6N2O3/c5-4-3(6-8)2(7)1-9-4/h2,5,7-8H,1H2/t2-/m0/s1
