23
gdb 96587	2.198	1.47649	1.02547	2.0352	81.68	-0.2505	0.0816	0.332	1259.7401	0.207582	-425.42389	-425.414964	-425.41402	-425.457109	34.898	
C	 0.0759519876	 1.6037199818	 0.0140717013	-0.409576
C	 0.0110606722	 0.0690154742	 0.0312194998	 0.045643
C	 0.6634355645	-0.4820047446	-1.2600697377	-0.187911
C	 1.0366674551	-1.9714617843	-1.2949957753	-0.239183
C	-0.1101270041	-2.959417606	-1.0741235958	-0.062845
O	-0.8630214496	-2.7634751793	 0.1167732735	-0.23758
C	-0.1574646977	-2.7652910664	 1.3348529383	 0.016008
O	-0.1454296936	-1.5167228744	 1.9576201747	-0.229326
C	 0.6168907415	-0.4824849965	 1.3462403175	-0.094244
H	 1.1113912668	 1.9575620903	 0.0960435585	 0.110714
H	-0.3338088448	 2.0062134859	-0.9183692564	 0.111957
H	-0.49180006	 2.0355608272	 0.8445784011	 0.114426
H	-1.0402239135	-0.2302989309	 0.0487577494	 0.102467
H	-0.0038656264	-0.2570957428	-2.1024918532	 0.096294
H	 1.58341254	 0.0881461563	-1.4504811665	 0.090503
H	 1.4735246701	-2.203253959	-2.2749269395	 0.097972
H	 1.8356158472	-2.1699579881	-0.5716435434	 0.101147
H	-0.8446352012	-2.8708804674	-1.882148698	 0.108906
H	 0.2867102926	-3.9867024392	-1.10615275	 0.090796
H	-0.6952583807	-3.4183941407	 2.0300419545	 0.108951
H	 0.8657916694	-3.1508039165	 1.1895297208	 0.075702
H	 1.6592340265	-0.8093485928	 1.2021587499	 0.085296
H	 0.6352597578	 0.3113998834	 2.0988130063	 0.103886
103.626	147.1994	209.7688	235.828	248.5368	308.404	329.3397	330.828	411.4523	422.2443	465.8709	540.83	578.2572	785.7627	832.6524	865.6673	891.1581	900.7855	940.728	973.724	984.9873	1027.0905	1058.0924	1088.7338	1104.572	1125.5953	1161.1334	1177.3206	1208.3991	1237.0825	1262.9427	1298.9519	1311.7509	1327.5674	1340.2228	1362.3449	1390.1134	1397.3898	1404.8998	1414.2763	1422.7798	1450.8945	1478.3551	1484.9372	1497.478	1498.7372	1499.7139	1505.0973	1516.4856	2958.2754	2978.2872	2979.4633	3004.9369	3021.2024	3030.9958	3038.9852	3055.7726	3068.8706	3072.843	3074.5659	3078.2911	3093.9063	3101.1335
CC1CCCOCOC1	C[C@H]1CCCOCOC1	
InChI=1S/C7H14O2/c1-7-3-2-4-8-6-9-5-7/h7H,2-6H2,1H3	InChI=1S/C7H14O2/c1-7-3-2-4-8-6-9-5-7/h7H,2-6H2,1H3/t7-/m0/s1
