20
gdb 91319	2.47836	1.55886	1.22861	2.2171	74.55	-0.2103	0.0532	0.2635	1088.5536	0.169734	-440.227442	-440.218471	-440.217527	-440.260734	34.814	
C	 0.3115971264	 1.4579171771	-0.4307258832	-0.450295
C	 0.0451607424	 0.0048480244	-0.0655554207	 0.382452
O	-1.3479713922	-0.2127289201	 0.1153052224	-0.475137
C	 0.7343744816	-1.0891586675	-0.9448045344	-0.223423
N	 1.4227500717	-1.6888892863	 0.2390231586	-0.12757
C	 2.7585713478	-1.0676043118	 0.5129626046	-0.223817
C	 2.1466810865	-0.1981707206	 1.647292421	 0.100748
O	 2.3815170012	 1.1906232279	 1.6631368548	-0.426704
C	 0.7638205968	-0.6593126724	 1.1458371049	-0.030422
H	 1.3767143882	 1.6735063929	-0.5149471986	 0.131907
H	-0.1645588663	 1.6829256458	-1.3949262496	 0.094243
H	-0.1092572262	 2.1244006214	 0.3268981405	 0.128361
H	-1.8056105652	 0.1540796469	-0.6492732693	 0.274316
H	 0.0154266693	-1.78483533	-1.3883502032	 0.101181
H	 1.4172996347	-0.7295663805	-1.7234616263	 0.092263
H	 3.5190058907	-1.7965994457	 0.8100942376	 0.099393
H	 3.1491866632	-0.4660993629	-0.3174697417	 0.097655
H	 2.3450060968	-0.6355886496	 2.6347628032	 0.081918
H	 3.2264479182	 1.3503143557	 2.0947971301	 0.287806
H	 0.0577437745	-1.0195392646	 1.8973189793	 0.085124
63.4986	175.5212	231.4641	240.2781	252.2433	268.8449	324.3329	373.5256	392.8503	408.9637	459.3421	562.692	624.966	681.4108	763.9476	850.1664	879.1483	898.6571	944.6566	954.1609	972.3765	1013.9021	1028.6078	1052.4328	1112.1313	1157.4594	1166.7323	1176.6168	1183.9353	1207.9386	1213.2795	1252.1151	1285.0599	1295.6019	1315.4462	1335.7111	1382.0111	1415.4712	1436.7601	1478.8972	1486.3918	1490.7246	1503.6989	3007.399	3016.878	3019.7591	3027.1964	3076.7755	3084.0889	3085.8235	3101.843	3151.3238	3798.7068	3820.8765
CC1(O)CN2CC(O)C12	C[C@@]1(O)CN2C[C@@H](O)[C@@H]12	
InChI=1S/C6H11NO2/c1-6(9)3-7-2-4(8)5(6)7/h4-5,8-9H,2-3H2,1H3	InChI=1S/C6H11NO2/c1-6(9)3-7-2-4(8)5(6)7/h4-5,8-9H,2-3H2,1H3/t4-,5+,6-/m1/s1
