19
gdb 95530	2.24985	1.61027	1.14976	1.3339	83.13	-0.242	0.013	0.2551	1132.8384	0.158539	-385.862811	-385.854074	-385.85313	-385.895939	33.601	
C	-0.0826259706	 1.5219226002	-0.0976377761	-0.411981
C	 0.0285793077	 0.0099952655	-0.0008355412	 0.120241
O	 0.6387513297	-0.4512081001	-1.1953212259	-0.254832
C	 0.5844692148	-1.855382182	-1.3418364132	-0.120496
C	 0.940419418	-2.5976448534	-0.0853675393	-0.061058
C	 1.070042036	-1.9862871208	 1.0871365899	-0.076965
C	 0.8234237833	-0.4946218072	 1.2353691542	-0.222386
C	 2.081460465	 0.2184388377	 1.4588552902	 0.36063
C	 3.120908282	 0.7893229641	 1.6568862595	-0.493194
H	 0.9086307751	 1.9687480696	-0.2030412854	 0.14212
H	-0.6863166668	 1.7948528431	-0.9669205202	 0.120395
H	-0.5552636345	 1.931603204	 0.8002593466	 0.113194
H	-0.9802826364	-0.4289990891	 0.0850502357	 0.067603
H	-0.4177129233	-2.1708568993	-1.6893090031	 0.096686
H	 1.2879095884	-2.1063859273	-2.1446894599	 0.120637
H	 1.0872165101	-3.6705877423	-0.1777857511	 0.096207
H	 1.3620618818	-2.530319294	 1.9799527143	 0.101177
H	 0.1837296651	-0.3336314162	 2.1156895218	 0.106425
H	 4.0401756448	 1.2934451775	 1.8250272131	 0.195596
81.148	143.9984	185.5781	214.6951	244.9001	308.3322	365.6196	393.4919	468.2863	495.3119	554.1782	614.4565	634.456	669.738	709.5297	764.3945	853.4336	895.4514	927.0574	976.6075	992.0969	1009.1998	1039.6652	1065.0031	1122.8006	1137.2784	1172.6389	1213.5219	1268.2076	1284.7259	1301.8818	1368.5027	1377.2845	1401.9846	1409.1247	1417.4282	1483.0937	1486.2032	1498.7726	1727.9068	2230.6264	2927.1565	2954.0379	2998.1443	3049.0173	3051.0342	3121.1285	3136.1604	3158.5995	3183.0867	3503.4092
CC1OCC=CC1C#C	C[C@H]1OCC=C[C@H]1C#C	
InChI=1S/C8H10O/c1-3-8-5-4-6-9-7(8)2/h1,4-5,7-8H,6H2,2H3	InChI=1S/C8H10O/c1-3-8-5-4-6-9-7(8)2/h1,4-5,7-8H,6H2,2H3/t7-,8-/m1/s1
