16
gdb 58157	3.55612	0.74143	0.63331	5.0768	80.08	-0.2748	-0.0495	0.2254	1681.8651	0.121508	-437.862683	-437.852588	-437.851644	-437.898235	35.385	
C	-0.0381360641	 1.5562776656	 0.0822541177	-0.415253
C	-0.0039136076	 0.0322548267	 0.064451626	 0.120639
O	-1.2894840398	-0.5466855855	 0.1873409769	-0.415822
C	 0.7046089823	-0.4978492521	-1.2155223572	-0.101764
O	 2.0200351149	 0.018350623	-1.3561679805	-0.405216
C	 0.695130669	-1.9612365761	-1.2548029291	 0.087609
C	 0.7521537603	-3.168241811	-1.2589946879	 0.069505
C	 0.8097226022	-4.5322185069	-1.2685588568	 0.204911
N	 0.8623080544	-5.6926869813	-1.2767729995	-0.333264
H	 0.9686294863	 1.9700258113	-0.0055365658	 0.141105
H	-0.6304059467	 1.9383014845	-0.7595272084	 0.111892
H	-0.4935244103	 1.9092143265	 1.0108267153	 0.131535
H	 0.5612494514	-0.3374352942	 0.9294507284	 0.09783
H	-1.8826638629	-0.0997191837	-0.4270405058	 0.285944
H	 0.1518219865	-0.1200316766	-2.0865870154	 0.124946
H	 2.585251074	-0.42241	-0.7109950478	 0.295401
62.6097	68.8318	119.5433	191.1544	227.7746	254.6746	272.2646	292.1226	293.655	347.5399	404.7583	452.4944	506.4481	549.045	574.847	599.8247	764.6134	871.9204	938.7134	1043.9632	1067.8805	1112.0933	1140.1044	1164.8366	1231.4178	1279.9712	1317.2745	1368.9068	1400.1816	1413.3194	1418.1559	1489.7389	1496.1698	2262.5334	2399.1982	3020.1322	3027.0998	3042.557	3106.9624	3140.8206	3799.1717	3800.6001
CC(O)C(O)C#CC#N	C[C@@H](O)[C@@H](O)C#CC#N	
InChI=1S/C6H7NO2/c1-5(8)6(9)3-2-4-7/h5-6,8-9H,1H3	InChI=1S/C6H7NO2/c1-5(8)6(9)3-2-4-7/h5-6,8-9H,1H3/t5-,6+/m1/s1
