22
gdb 88175	2.28563	1.53332	1.1657	2.931	82.11	-0.2354	0.0801	0.3155	1171.181	0.195317	-404.335366	-404.326587	-404.325642	-404.36873	34.548	
C	-0.3243884482	 1.3840693072	 0.1662373471	-0.321581
N	-0.0965237725	-0.0488648371	 0.2567642221	-0.13057
C	 1.1689993406	-0.5723344147	-0.2597341202	-0.312778
C	 0.8979518766	-0.5862016197	 1.2002128656	 0.313534
C	 1.6287877292	 0.2730306289	 2.2366928325	-0.30244
C	 1.5104723058	-0.5225839896	 3.5642265634	-0.216419
C	 0.2730977784	-1.4125074027	 3.3703786099	-0.235026
C	 0.4105155804	-1.868577298	 1.907813883	 0.104496
O	-0.7422795238	-2.408112854	 1.3202532874	-0.453327
H	 0.5910823992	 1.9883476876	 0.2576818039	 0.107741
H	-0.7814637896	 1.6064051185	-0.8029898788	 0.128528
H	-1.0225568168	 1.6966463078	 0.9494834382	 0.126462
H	 1.0974997785	-1.4895257028	-0.8400796265	 0.121283
H	 1.8935366136	 0.1514809996	-0.6321817733	 0.106718
H	 2.669154219	 0.4658539684	 1.9612931106	 0.105119
H	 1.1429454567	 1.2494078526	 2.335811721	 0.108175
H	 2.3984900108	-1.1497455225	 3.7032307363	 0.103642
H	 1.4419545683	 0.1318759247	 4.4365935975	 0.099193
H	 0.217837194	-2.247507668	 4.0730854666	 0.098177
H	-0.6493123587	-0.826552322	 3.4708021798	 0.095395
H	 1.207668527	-2.6261241702	 1.8513132242	 0.073733
H	-1.1037437285	-1.679915594	 0.7838408696	 0.279944
55.6053	165.8017	200.0685	212.7885	246.6174	285.9198	386.0758	439.2818	472.6775	497.923	556.357	565.2142	588.5114	698.8379	765.4554	833.1464	860.4446	902.4631	920.9303	935.8579	988.8685	1016.3802	1051.4619	1095.9422	1125.1048	1131.5604	1151.2619	1156.5879	1175.8822	1192.6008	1210.9572	1244.4623	1252.0013	1281.0893	1311.5326	1319.8937	1340.4654	1378.1403	1399.6433	1448.0576	1461.1784	1484.619	1490.054	1493.6933	1500.728	1506.1558	1510.2579	2981.9839	2985.9921	3033.7525	3042.7427	3049.8374	3070.8969	3083.9567	3086.5795	3099.3278	3102.9809	3105.3848	3171.5303	3610.7636
CN1CC11CCCC1O	CN1C[C@]21CCC[C@H]2O	
InChI=1S/C7H13NO/c1-8-5-7(8)4-2-3-6(7)9/h6,9H,2-5H2,1H3	InChI=1S/C7H13NO/c1-8-5-7(8)4-2-3-6(7)9/h6,9H,2-5H2,1H3/t6-,7-,8?/m1/s1
