19
gdb 41759	2.46179	1.86937	1.41801	1.8152	82.19	-0.2263	-0.031	0.1952	987.2623	0.161934	-385.877652	-385.870287	-385.869342	-385.909462	29.236	
C	-0.0811473817	 1.3637984852	-0.4638808383	-0.073628
O	 0.9466869286	 1.7685333539	 0.4576964542	-0.291413
C	 1.2876659389	 0.3835347536	 0.7675808274	 0.105151
C	 1.4333608418	 0.1160328853	 2.2370085387	-0.099716
C	 0.4812118789	 0.2857431022	 3.1680748877	-0.071152
C	-0.922991078	 0.6064240555	 2.9316724645	-0.059217
C	-1.6366572807	 0.1853281723	 1.8789817921	-0.078988
C	-1.0970980879	-0.7079039788	 0.7901525483	-0.27599
C	 0.0480892609	-0.1135545096	-0.0359791025	-0.068901
H	-1.0367211596	 1.8554408881	-0.2469226567	 0.099853
H	 0.1974399754	 1.56333323	-1.507614676	 0.090426
H	 2.2274453164	 0.1195229729	 0.2636161679	 0.067706
H	 2.4320688789	-0.1516820818	 2.5723174037	 0.089875
H	 0.7715969231	 0.1841506906	 4.2129221761	 0.094345
H	-1.4221314996	 1.1838187475	 3.7068889387	 0.089766
H	-2.6845489003	 0.466220759	 1.8162688149	 0.092144
H	-0.7236306479	-1.6386904188	 1.2426629897	 0.115209
H	-1.9102187327	-0.9938649953	 0.1139334277	 0.100093
H	 0.3014992757	-0.8011615116	-0.8482168581	 0.074436
89.4311	151.5266	242.4169	288.2435	370.8828	416.8856	421.1848	602.8447	645.2543	709.9015	748.4954	768.509	822.6731	868.0757	886.0191	920.4717	937.3567	977.4705	987.7039	1000.7442	1007.5996	1024.3791	1069.2787	1090.6378	1130.341	1165.8703	1206.1203	1240.4748	1245.9129	1279.4092	1298.2113	1325.3103	1346.3192	1378.7415	1394.2021	1417.4561	1453.0492	1474.6866	1518.3115	1670.6835	1703.4873	2997.396	2999.1381	3004.6125	3051.1056	3060.1128	3068.2762	3128.0661	3144.4913	3161.5535	3169.4164
C1OC2C=CC=CCC12	C1O[C@H]2C=CC=CC[C@@H]12	
InChI=1S/C8H10O/c1-2-4-7-6-9-8(7)5-3-1/h1-3,5,7-8H,4,6H2	InChI=1S/C8H10O/c1-2-4-7-6-9-8(7)5-3-1/h1-3,5,7-8H,4,6H2/t7-,8-/m0/s1
