18
gdb 110646	2.48365	1.61572	1.21403	1.0722	71.98	-0.2023	0.0662	0.2685	1070.1584	0.145383	-438.960551	-438.951836	-438.950891	-438.994135	32.768	
C	-0.4764006272	 1.0057875891	 0.0146063411	-0.226536
O	 0.6388925592	 0.1665985886	-0.1994744321	-0.219921
C	 0.9864746752	-0.585852396	 0.9086052174	 0.040888
C	 0.1807742715	-1.6205846517	 1.6930188631	-0.194934
C	-0.6098531196	-2.6584949703	 0.8569275548	-0.046405
N	-0.5499188105	-2.300097148	-0.5838087983	-0.323363
C	 0.5862542132	-3.0017783636	 0.071350028	-0.128487
C	 1.4507818412	-1.9981989522	 0.9008207553	 0.323087
O	 2.6691756291	-2.40494414	 1.414832123	-0.456294
H	-0.3141903166	 1.6980579799	 0.8555184243	 0.095953
H	-0.6162866621	 1.5878477086	-0.8992394768	 0.122173
H	-1.3827300707	 0.417549907	 0.2086866188	 0.116486
H	 1.5796060736	-0.0175332608	 1.6360876122	 0.089232
H	 0.0556426245	-1.5170942186	 2.7636809237	 0.097402
H	-1.3892720813	-3.2958585014	 1.2533841715	 0.095605
H	-1.0753690828	-3.0193746976	-1.084497384	 0.22631
H	 0.9505946643	-3.9633344226	-0.2661418924	 0.098691
H	 3.3614398592	-2.1077254405	 0.8127237305	 0.290112
48.3612	150.4957	168.1918	207.3655	258.8522	278.7255	327.4451	364.4365	418.412	528.7913	634.6542	668.9527	737.971	772.5226	828.3849	833.0609	881.6555	907.4957	956.306	967.9783	981.4075	1050.9802	1061.1115	1099.2107	1129.3664	1151.6847	1179.3902	1204.8639	1218.9287	1236.5726	1267.287	1309.739	1330.1879	1354.0757	1369.1747	1457.0676	1485.9047	1496.8202	1503.4388	2980.8082	3026.9444	3046.8124	3118.0178	3188.2969	3196.3087	3206.8654	3442.3222	3782.2021
COC1C2C3NC3C12O	CO[C@H]1[C@H]2[C@H]3N[C@H]3[C@@]12O	
InChI=1S/C6H9NO2/c1-9-5-2-3-4(7-3)6(2,5)8/h2-5,7-8H,1H3	InChI=1S/C6H9NO2/c1-9-5-2-3-4(7-3)6(2,5)8/h2-5,7-8H,1H3/t2-,3-,4-,5+,6-/m1/s1
