16
gdb 49048	2.1045	1.75275	1.31505	3.8146	70.3	-0.2511	-0.0341	0.217	1015.6122	0.124178	-437.898283	-437.890265	-437.889321	-437.931422	29.277	
O	-0.6968885092	 0.7445817285	-0.7088892551	-0.244706
C	 0.1420030742	 0.9063724449	 0.1425083785	 0.054499
C	 1.2995756346	 1.8369269935	 0.0139419058	 0.099259
C	 1.3965863227	 3.0847184672	 0.9620913647	-0.296771
C	 1.6402766069	 3.9905499715	-0.2835061239	-0.225872
C	 1.5819213064	 2.7471873235	-1.2165877604	-0.027942
N	 2.849946686	 2.029469897	-1.3771896215	-0.323406
C	 2.7201177584	 1.2442579933	-0.2528787644	 0.371401
O	 3.4466164499	 0.46956693	 0.3033280504	-0.347954
H	 0.0996833707	 0.3581605414	 1.1099223314	 0.090763
H	 0.4573695633	 3.300251222	 1.4759421362	 0.125033
H	 2.1955896228	 3.0346250822	 1.7037803566	 0.129319
H	 0.82333403	 4.6922629125	-0.4641957554	 0.120726
H	 2.5848819669	 4.5376608107	-0.3050012216	 0.110761
H	 0.9459624975	 2.7677450158	-2.0997030895	 0.112369
H	 3.6977292987	 2.300776636	-1.8575769218	 0.252523
64.612	120.8965	153.8614	198.1429	232.4817	359.7358	417.1921	496.4645	607.9978	663.4247	682.2504	739.3485	756.3325	821.7219	879.5423	906.8323	949.1887	972.3672	1007.4379	1076.5815	1102.9759	1115.1524	1143.5696	1196.0682	1227.4906	1236.7631	1269.8504	1307.7687	1338.5646	1366.5612	1419.7735	1472.3949	1492.6232	1810.6709	1892.5919	2886.9974	3070.8632	3076.1103	3118.6149	3133.2419	3139.163	3583.6135
O=CC12CCC1NC2=O	O=C[C@]12CC[C@H]1NC2=O	
InChI=1S/C6H7NO2/c8-3-6-2-1-4(6)7-5(6)9/h3-4H,1-2H2,(H,7,9)	InChI=1S/C6H7NO2/c8-3-6-2-1-4(6)7-5(6)9/h3-4H,1-2H2,(H,7,9)/t4-,6-/m1/s1
