15
gdb 125278	5.34017	1.27075	1.03309	2.3722	74.36	-0.2073	0.0145	0.2218	1100.9497	0.115327	-416.832827	-416.825702	-416.824757	-416.864263	27.271	
C	 0.1110115442	 1.4571053568	 0.0238865817	-0.489568
C	-0.0778621057	-0.0142292465	-0.0072168269	 0.36411
C	-1.1655211494	-0.8157110229	-0.1645188578	-0.474016
C	-0.6884949853	-2.1775938442	-0.0986048043	 0.219662
C	 0.6682242434	-2.0409519081	 0.0957919144	 0.448715
N	 1.2436211125	-3.253852344	 0.1717647468	-0.362502
N	 0.2876855558	-4.2259910611	 0.0321883408	-0.226605
C	-0.8681069804	-3.5834268892	-0.1305419849	-0.156606
O	 1.0961298991	-0.7713737149	 0.1591973028	-0.252037
H	 0.786894266	 1.7950797264	-0.7702889093	 0.139632
H	-0.8528560389	 1.9520407478	-0.1138160393	 0.139328
H	 0.5345905555	 1.790414329	 0.9784843484	 0.139637
H	-2.1741728399	-0.4604803709	-0.3079578188	 0.117414
H	 2.2025664498	-3.5166881679	 0.312545035	 0.278885
H	-1.7701564367	-4.1622855502	-0.2616903285	 0.113951
139.4896	148.2316	275.8806	282.9541	326.8039	393.5721	500.4079	558.6227	611.7438	659.1093	745.6235	766.073	801.3899	813.4172	870.3563	909.9208	978.6624	1014.9005	1060.0775	1064.7272	1151.4186	1181.3662	1252.9055	1268.0637	1323.1872	1412.5786	1421.9558	1468.7927	1483.9819	1489.3058	1566.6964	1597.2687	1650.7672	3027.6879	3076.8448	3130.1127	3247.3311	3255.0738	3695.2162
CC1=CC2=C(NN=C2)O1	Cc1cc2c([nH]nc2)o1	
InChI=1S/C6H6N2O/c1-4-2-5-3-7-8-6(5)9-4/h2-3H,1H3,(H,7,8)	InChI=1S/C6H6N2O/c1-4-2-5-3-7-8-6(5)9-4/h2-3H,1H3,(H,7,8)
