16
gdb 127608	3.31652	1.38175	0.98131	3.0577	78.43	-0.2016	-0.0434	0.1582	1147.8508	0.125659	-434.080961	-434.07296	-434.072016	-434.113301	30.543	
C	-0.0318846084	 1.411614041	-0.0172264086	-0.302941
N	-0.0069717214	-0.0450002318	 0.0039642555	-0.02525
N	-0.0370428306	-0.6513148054	-1.1771508832	-0.191625
C	-0.0167153645	-1.9506726762	-1.2172399894	-0.123945
C	 0.0369758694	-2.7570680283	-0.0328554748	 0.369072
O	 0.0566133635	-4.1088290547	-0.1149837994	-0.428177
C	 0.0677153051	-2.1369192733	 1.1726186414	-0.289661
C	 0.0469196457	-0.6937275687	 1.2587561399	 0.396235
N	 0.0702362897	 0.0595395832	 2.3028472976	-0.582246
H	 0.8607174833	 1.8068736857	 0.4743397023	 0.150455
H	-0.0741821026	 1.7201749266	-1.0602487839	 0.137853
H	-0.8997693618	 1.7774864498	 0.5372521597	 0.15057
H	-0.0429586365	-2.3978386595	-2.2070137936	 0.111034
H	 0.0295437281	-4.3769788509	-1.0397960482	 0.305924
H	 0.1084589166	-2.7104364126	 2.0907177188	 0.114851
H	 0.1083307244	-0.5142274047	 3.1431990359	 0.207853
117.096	151.5643	193.8093	278.5048	336.5665	348.8068	358.8899	449.0967	469.8586	511.8589	612.5281	682.0309	720.8683	745.1418	772.4129	781.897	823.6842	877.4877	997.7128	1047.5893	1107.9821	1152.0982	1210.009	1227.8166	1269.3886	1299.0281	1360.0846	1406.9888	1436.7725	1460.0993	1466.4632	1508.48	1575.8348	1644.0078	1712.7043	3057.6039	3118.8693	3165.2062	3176.6	3207.398	3499.1554	3817.9229
CN1N=CC(O)=CC1=N	CN1N=C[C@@H](O)C=C1[NH]	
InChI=1S/C5H7N3O/c1-8-5(6)2-4(9)3-7-8/h2-3,6,9H,1H3	InChI=1S/C5H8N3O/c1-8-5(6)2-4(9)3-7-8/h2-4,6,9H,1H3/t4-/m0/s1
