21
gdb 73632	2.17215	1.86108	1.43111	1.3311	81.94	-0.237	0.0291	0.2661	1031.5879	0.184765	-387.120294	-387.112391	-387.111446	-387.152564	32.228	
O	-0.1236741861	 1.4021266208	-0.1594547844	-0.488896
C	 0.0110397365	-0.0042598085	 0.0275168094	 0.40986
C	 0.7034879601	-0.6965546212	-1.1689995462	-0.276821
C	-0.0029222213	-2.0545971193	-1.2948944814	-0.202846
C	-1.4788324206	-1.6925954644	-1.0480018983	-0.222447
C	-1.4269956658	-0.6305840858	 0.0817536477	-0.064493
C	-1.526300583	-1.2012535351	 1.4717731617	-0.072045
C	-0.4098284632	-1.0485075255	 2.180503423	-0.069746
C	 0.6672663336	-0.3358456487	 1.4066136139	-0.31548
H	 0.7612057259	 1.7762546721	-0.2291129784	 0.271083
H	 0.5051641698	-0.093755606	-2.0631397725	 0.099096
H	 1.7892963159	-0.7738995608	-1.0500113419	 0.083489
H	 0.1674496652	-2.5394661175	-2.2603166805	 0.094268
H	 0.3519761651	-2.7417723447	-0.5173581371	 0.10349
H	-1.9055647168	-1.2508094253	-1.9557685943	 0.097556
H	-2.0966476436	-2.5565079425	-0.7856185285	 0.090973
H	-2.1748443916	 0.1522987145	-0.0811399659	 0.087563
H	-2.4290617483	-1.6882038292	 1.8270331391	 0.087823
H	-0.265609363	-1.3855629381	 3.2017655388	 0.089364
H	 1.5684696268	-0.9545886954	 1.3013263385	 0.096918
H	 0.9799407243	 0.5935083508	 1.9001902772	 0.101292
63.9497	180.2471	259.5205	282.0746	333.19	388.8235	420.6803	459.0249	550.7215	575.8826	617.6294	723.1114	764.0895	807.5347	830.6995	867.4136	917.607	923.0885	956.0324	970.9142	979.6329	992.8463	1005.524	1045.2149	1058.8425	1101.6542	1124.046	1132.087	1166.7321	1190.8052	1222.4738	1260.1775	1275.0531	1296.1094	1310.3851	1327.571	1328.4045	1346.8112	1367.2319	1394.5734	1469.6836	1486.1104	1489.821	1506.2064	1692.3676	3010.0633	3032.4899	3034.2132	3037.3193	3041.652	3055.1852	3079.3306	3084.0091	3094.9701	3170.8772	3196.9889	3802.7865
OC12CCCC1C=CC2	O[C@]12CCC[C@H]1C=CC2	
InChI=1S/C8H12O/c9-8-5-1-3-7(8)4-2-6-8/h1,3,7,9H,2,4-6H2	InChI=1S/C8H12O/c9-8-5-1-3-7(8)4-2-6-8/h1,3,7,9H,2,4-6H2/t7-,8-/m1/s1
