23
gdb 89532	4.20179	1.09059	1.00047	0.1877	90.61	-0.2736	0.0899	0.3634	1305.3329	0.207221	-351.099417	-351.091306	-351.090362	-351.131905	33.235	
C	 0.0308732989	 1.631754284	 0.0221232257	-0.405677
C	 0.0378052654	 0.110934066	 0.0118794625	 0.05242
C	 1.0464923034	-0.6228224697	-0.9187578514	-0.341371
C	 1.3352868347	-1.6137018188	 0.2347274028	 0.451847
C	 0.6563426082	-0.6390585629	 1.2271392826	-0.341366
C	 0.9681436899	-3.127608986	 0.1565216192	-0.10411
C	 2.2524119048	-3.3153649822	-0.7027978324	-0.225842
C	 2.6659979485	-2.3793243029	 0.4708770356	-0.11624
C	 1.8682320354	-3.331281867	 1.4100689287	-0.225837
H	 1.0367274162	 2.0264162608	 0.2079930157	 0.10903
H	-0.3128367339	 2.0364814317	-0.9366474013	 0.11191
H	-0.6293895743	 2.0233129469	 0.8043739528	 0.111909
H	-0.974981051	-0.2629297505	-0.1750849986	 0.068765
H	 0.6587717404	-1.0263340343	-1.858286813	 0.094866
H	 1.9151253016	 0.0060830018	-1.1470375483	 0.092982
H	 1.3873639124	-0.0158775879	 1.7557319217	 0.092984
H	-0.0361774533	-1.0552579944	 1.9640639728	 0.094867
H	-0.0187088784	-3.5585046179	-0.0261628902	 0.063883
H	 2.6930118303	-4.3163311296	-0.7023997891	 0.085215
H	 2.2485351927	-2.8836428172	-1.7060500321	 0.091891
H	 3.6500476309	-1.9417759491	 0.6531004067	 0.060773
H	 1.5103127078	-2.9142275695	 2.3539311663	 0.091892
H	 2.2834249391	-4.3333004913	 1.5501861335	 0.08521
69.8466	190.7338	214.6779	257.4997	301.938	338.0508	398.7615	442.5626	561.6343	575.6906	707.0446	758.232	794.6856	838.1104	849.7272	900.9713	901.4201	903.8462	905.6347	953.3058	987.4689	1014.8401	1019.2719	1038.7503	1042.9091	1094.5187	1102.7792	1114.8897	1117.0367	1163.8028	1166.2901	1187.7332	1193.5285	1195.6074	1230.7675	1235.3198	1253.6809	1258.5204	1272.5747	1290.9579	1329.7248	1375.1151	1411.5446	1472.694	1493.5027	1496.2724	1499.048	1499.1775	1536.9536	3020.2597	3030.637	3033.6866	3039.4122	3052.9564	3053.3279	3083.5485	3085.4941	3087.6865	3089.099	3091.4663	3095.2741	3117.5937	3119.5915
CC1CC2(C1)C1CC2C1	C[C@H]1C[C@@]2(C1)[C@H]1C[C@@H]2C1	
InChI=1S/C9H14/c1-6-4-9(5-6)7-2-8(9)3-7/h6-8H,2-5H2,1H3	InChI=1S/C9H14/c1-6-4-9(5-6)7-2-8(9)3-7/h6-8H,2-5H2,1H3/t6-,7-,8+,9-
