21
gdb 53347	4.59078	0.72511	0.65643	0.2972	95.14	-0.2285	0.0312	0.2597	1781.7801	0.181552	-349.957585	-349.947542	-349.946598	-349.994195	35.906	
C	 0.5421968702	 1.5901291428	-0.6128917843	-0.498189
C	 0.2542738904	 0.2025793082	-0.2769021395	 0.074886
C	 0.0184585916	-0.9471338197	-0.0045811079	 0.054322
C	-0.2758245553	-2.3315274088	 0.3382102566	-0.160861
C	 0.3831969091	-2.8345996786	 1.6612909548	-0.256823
C	-0.6123405161	-3.8507733702	 2.1606765506	-0.168144
C	-1.7954733586	-3.7623318384	 1.5488957243	 0.332396
C	-3.0249876253	-4.5689131658	 1.8236286854	-0.49349
C	-1.790159329	-2.6531527118	 0.5170780372	-0.30215
H	 1.6168987305	 1.7526946317	-0.7528094057	 0.14495
H	 0.0408611679	 1.8887281035	-1.5405433173	 0.144748
H	 0.2062815841	 2.2715939856	 0.1768218894	 0.14426
H	 0.0946011386	-2.9788839574	-0.466920361	 0.100832
H	 1.3833517624	-3.2448593668	 1.4849416473	 0.104825
H	 0.5053553845	-2.0095400874	 2.3760564699	 0.111971
H	-0.3859245475	-4.5425887045	 2.9657573267	 0.082852
H	-2.8563890326	-5.3067161034	 2.6129497293	 0.121892
H	-3.8599028708	-3.9261437318	 2.1319680858	 0.124713
H	-3.3611806822	-5.1010472577	 0.9244306931	 0.123248
H	-2.3390483238	-1.7759373799	 0.8863149187	 0.111385
H	-2.2621496581	-2.9387390197	-0.4299497433	 0.102376
20.0865	59.0165	88.966	165.4799	185.2306	245.5939	263.4143	315.9792	338.0229	432.1647	449.4332	521.7234	546.7859	627.7162	802.3936	822.2949	877.7426	901.7947	920.8181	957.9568	1012.8281	1034.1925	1053.6378	1053.9557	1060.9671	1074.4278	1146.7339	1178.6985	1193.4883	1199.5867	1277.9597	1296.71	1310.2264	1339.7458	1362.4146	1414.5212	1415.3902	1478.911	1479.6637	1480.0793	1485.1973	1489.6283	1494.9759	1723.7719	2368.9082	3010.6392	3013.6249	3016.928	3020.7684	3023.8054	3057.4446	3059.6732	3064.5096	3082.8085	3083.1017	3108.2975	3181.3107
CC#CC1CC=C(C)C1	CC#C[C@H]1CC=C(C)C1	
InChI=1S/C9H12/c1-3-4-9-6-5-8(2)7-9/h5,9H,6-7H2,1-2H3	InChI=1S/C9H12/c1-3-4-9-6-5-8(2)7-9/h5,9H,6-7H2,1-2H3/t9-/m0/s1
