17
gdb 115025	2.17095	1.57022	0.99947	4.1309	72.56	-0.276	-0.0063	0.2696	1178.8224	0.136617	-418.036862	-418.028271	-418.027327	-418.071161	30.618	
C	 0.0787968193	 1.5863833505	 0.0186808453	-0.398018
C	 0.1189231863	 0.0563744871	 0.0543822601	-0.191492
C	 0.6295093911	-0.549387022	-1.2438553927	 0.088343
O	 1.9989052062	-0.1143521057	-1.4887922634	-0.220361
C	 2.7171836413	-1.2288564102	-1.7161619072	 0.131447
N	 2.1709158601	-2.3732405292	-1.6642297073	-0.258801
C	 0.7563044987	-2.1149317234	-1.3160700873	-0.166524
C	 0.3966740963	-2.8096483142	-0.0724899467	 0.307304
N	 0.0914250213	-3.3478837764	 0.9029501076	-0.328933
H	 1.075458481	 1.999539313	-0.1573121293	 0.137344
H	-0.5813547294	 1.9480795801	-0.777386966	 0.118012
H	-0.2927706227	 1.9839108663	 0.96695559	 0.124737
H	 0.7500990704	-0.2925026771	 0.8790616624	 0.128733
H	-0.8835704099	-0.3456292017	 0.2419530587	 0.123153
H	 0.036289308	-0.1890814492	-2.0907353239	 0.106823
H	 3.7642445431	-1.0551429243	-1.9386419048	 0.156628
H	 0.1136672988	-2.5174105535	-2.1061089155	 0.141604
37.5658	104.565	130.2787	201.6064	218.2185	257.5338	371.7718	418.7513	481.2939	528.8911	604.9351	748.621	798.9733	811.6562	876.5442	913.4284	949.887	977.1571	998.2716	1042.392	1081.8757	1117.0359	1149.9635	1161.8544	1252.6956	1294.5755	1307.9458	1321.3367	1346.046	1371.6214	1407.1733	1414.4515	1471.7081	1498.78	1507.3207	1699.4894	2362.1219	3039.9397	3042.0875	3046.8659	3061.3231	3083.4994	3110.2799	3125.8702	3219.8389
CCC1OC=NC1C#N	CC[C@H]1OC=N[C@H]1C#N	
InChI=1S/C6H8N2O/c1-2-6-5(3-7)8-4-9-6/h4-6H,2H2,1H3	InChI=1S/C6H8N2O/c1-2-6-5(3-7)8-4-9-6/h4-6H,2H2,1H3/t5-,6+/m0/s1
