18
gdb 88908	4.29642	0.6479	0.60085	3.5211	84.42	-0.2379	-0.0609	0.1769	1821.8655	0.145093	-401.889142	-401.879244	-401.8783	-401.926183	33.862	
C	-0.3855549615	 1.3954721584	 0.4234212967	-0.320062
N	-0.0024628093	 0.0101301955	 0.1932972945	-0.066355
C	 1.335893639	-0.2609616117	-0.3153096512	-0.261942
C	 0.9546884608	-0.6498058959	 1.0728365816	 0.030268
C	 1.6095763326	 0.0384080245	 2.2674944941	-0.400155
C	 0.7582491195	 0.0762353963	 3.449664797	 0.113377
C	 0.0510236641	 0.1041989521	 4.4288225754	 0.023231
C	-0.8114118442	 0.1121014131	 5.5817483232	 0.01934
O	-0.7065727137	 0.8776982663	 6.5127400972	-0.228847
H	 0.4466865947	 2.0673046331	 0.6872981496	 0.099647
H	-0.8455638296	 1.7831793179	-0.4905799562	 0.130496
H	-1.1290966654	 1.4376814412	 1.2248037662	 0.135713
H	 1.4141917396	-1.0040538471	-1.1045819718	 0.120181
H	 2.0216176636	 0.5812402314	-0.4168059573	 0.106143
H	 0.7031414338	-1.6900707767	 1.272529912	 0.103423
H	 2.5294186867	-0.5070845004	 2.5189866292	 0.151725
H	 1.9282127567	 1.0548400977	 2.0135736627	 0.144446
H	-1.6076497074	-0.6596956957	 5.5562379872	 0.099371
21.7534	50.2598	74.2257	161.8625	167.3837	198.7677	282.5236	301.5079	391.6374	405.0574	438.1002	527.9602	612.2185	748.2921	783.2393	831.3639	904.5814	957.8954	1022.3953	1036.6869	1075.5157	1111.8115	1130.7934	1141.4698	1154.6714	1172.5745	1202.3928	1234.8379	1308.3237	1343.4575	1415.6457	1423.0092	1445.1231	1458.1909	1488.6132	1505.3997	1516.1406	1767.0537	2329.6028	2917.4432	2975.6753	3025.0382	3070.3597	3074.9808	3080.3327	3111.7092	3119.1531	3171.4539
CN1CC1CC#CC=O	CN1C[C@H]1CC#CC=O	
InChI=1S/C7H9NO/c1-8-6-7(8)4-2-3-5-9/h5,7H,4,6H2,1H3	InChI=1S/C7H9NO/c1-8-6-7(8)4-2-3-5-9/h5,7H,4,6H2,1H3/t7-,8?/m1/s1
