17
gdb 37451	2.59836	1.99958	1.95257	1.485	65.47	-0.2509	0.0735	0.3244	830.6647	0.138923	-458.931348	-458.925055	-458.924111	-458.961692	26.118	
C	-0.0145340618	 1.550663785	 0.0225971187	-0.072422
O	 1.3182292386	 2.0835347472	 0.0260805616	-0.264375
C	 2.2990398094	 1.062583506	 0.0071601278	 0.012323
C	 2.0733933991	 0.1382825198	 1.2167797035	-0.076656
O	 0.7662801976	-0.4476902185	 1.1325517418	-0.282912
C	 0.0451283494	 0.0238297223	-0.0167032713	 0.033258
C	 0.8142413321	-0.4318716904	-1.2558086539	 0.022629
O	 1.1766252678	 0.5876341942	-2.1976140541	-0.239927
C	 2.1465338685	 0.178947003	-1.2395797261	 0.051998
H	-0.5255188957	 1.8678460238	 0.9400653161	 0.102998
H	-0.5520160234	 1.9457270175	-0.8458101024	 0.117687
H	 3.2711649708	 1.5575887237	 0.0612507084	 0.088292
H	 2.8248050775	-0.6625969045	 1.2505090729	 0.10159
H	 2.1437652995	 0.7217615243	 2.1426309065	 0.111735
H	-0.9527411084	-0.413015747	 0.058015543	 0.086184
H	 0.624502049	-1.4164888549	-1.6735890724	 0.103803
H	 3.0243188101	-0.3285404118	-1.6332273102	 0.103795
197.0216	297.1943	318.1295	354.0237	399.3278	528.3619	573.6956	619.1213	706.797	800.3948	844.7303	849.6395	881.0273	891.5189	933.1997	941.1423	1004.6064	1014.3275	1042.4768	1049.1565	1076.9687	1104.8204	1122.7995	1151.5153	1229.346	1236.4908	1259.2674	1297.75	1319.2125	1327.2005	1340.5713	1355.04	1393.1391	1411.2078	1446.5038	1505.2216	1514.0309	3006.9337	3024.2842	3053.4156	3075.0978	3091.5916	3096.995	3137.5777	3157.1675
C1OC2COC1C1OC21	C1O[C@H]2CO[C@@H]1[C@H]1O[C@@H]21	
InChI=1S/C6H8O3/c1-3-5-6(9-5)4(7-1)2-8-3/h3-6H,1-2H2	InChI=1S/C6H8O3/c1-3-5-6(9-5)4(7-1)2-8-3/h3-6H,1-2H2/t3-,4-,5-,6+/m0/s1
