19
gdb 68083	2.53363	1.69062	1.23452	0.584	70.64	-0.2499	0.06	0.3099	1035.9566	0.159202	-460.145984	-460.137838	-460.136894	-460.177901	32.918	
O	-0.0468867155	 1.4051564329	-0.0495257342	-0.479542
C	 0.0037776934	 0.0072063455	 0.0397277833	 0.37441
C	 0.243485757	-0.7105211148	 1.4034757989	-0.32453
C	-0.6818187792	-1.8028931565	 0.8228568486	 0.371981
O	-1.4327042007	-2.5373674031	 1.7532225927	-0.478042
C	-1.3649227544	-0.6969710817	-0.0273990406	-0.32356
C	 0.1522768773	-2.7016520221	-0.1097188853	-0.12393
O	 1.2129800273	-1.9833006134	-0.7258328727	-0.257534
C	 0.9328008163	-0.6210690113	-1.0157641274	-0.119699
H	 0.8417172952	 1.7520765881	 0.0891353659	 0.278487
H	 1.2617706138	-0.989432722	 1.6823041768	 0.102785
H	-0.2561779188	-0.1750503562	 2.2133503594	 0.112131
H	-2.0729149446	-3.0739144769	 1.2722698317	 0.279321
H	-2.109772392	-0.1547366834	 0.5598678396	 0.111486
H	-1.764527483	-0.9585199594	-1.0120728688	 0.089457
H	 0.618678277	-3.5006946389	 0.475338721	 0.115336
H	-0.5039512069	-3.1648980022	-0.8676435749	 0.079545
H	 0.4847445606	-0.502795799	-2.0151179202	 0.097554
H	 1.9040090371	-0.1095982854	-1.0191571937	 0.094345
181.8387	236.0743	238.5296	258.5733	295.162	324.6025	397.9561	413.3845	440.7104	458.3966	489.99	563.1523	626.2027	712.7869	851.7692	890.736	908.9834	945.0191	949.6849	981.8216	1002.7322	1009.4402	1092.7977	1100.1047	1126.5755	1134.6918	1180.4674	1209.9684	1242.3633	1251.4411	1268.8072	1276.495	1283.7375	1355.6538	1369.8466	1393.0738	1414.1742	1467.4904	1500.5752	1505.0673	1518.5427	2948.6618	2980.1349	3040.4823	3047.498	3070.1157	3075.8836	3118.3856	3137.1445	3795.6926	3798.0035
OC12CC(O)(C1)COC2	O[C@@]12C[C@@](O)(C1)COC2	
InChI=1S/C6H10O3/c7-5-1-6(8,2-5)4-9-3-5/h7-8H,1-4H2	InChI=1S/C6H10O3/c7-5-1-6(8,2-5)4-9-3-5/h7-8H,1-4H2/t5-,6+
