20
gdb 78938	3.28083	1.62977	1.389	1.3464	81.72	-0.214	0.085	0.299	1018.0528	0.171453	-365.928879	-365.921306	-365.920362	-365.96036	30.956	
C	-0.1704684171	 1.4950086342	 0.0610548625	-0.40907
C	-0.0237677346	-0.014257083	-0.0314785056	 0.048491
C	 0.7938962025	-0.5525504393	-1.2273987572	-0.077462
C	 0.9523287326	-2.0656972655	-0.9509022204	-0.135811
C	 2.3388526508	-1.9231508239	-0.3346876488	-0.183623
C	 2.0690071064	-0.4044455385	-0.3278705572	-0.012035
N	 1.0923047901	-0.5295302283	 0.8596417564	-0.198562
C	 1.1441681695	-2.0030485529	 0.572357686	 0.380456
C	 0.7027526193	-3.0320084785	 1.5604569921	-0.513199
H	 0.7783114398	 2.0049038113	-0.1356522365	 0.116764
H	-0.9036068396	 1.8567276256	-0.6677163616	 0.111537
H	-0.5056517289	 1.786586069	 1.0607928408	 0.124463
H	-0.983305292	-0.5091718213	 0.1615183498	 0.065424
H	 0.7002999504	-0.1977015505	-2.254440599	 0.06211
H	 0.5136626919	-2.9112305081	-1.4636977465	 0.085384
H	 3.2333527156	-2.5264873304	-0.408427247	 0.089989
H	 2.7902513726	 0.4096606655	-0.3370706227	 0.076275
H	-0.3625096376	-2.9204077941	 1.7947267334	 0.121308
H	 0.8532145219	-4.0405115665	 1.1612112465	 0.118887
H	 1.2641621864	-2.9454581147	 2.4963093351	 0.128675
171.9888	198.4342	217.598	247.3563	261.7042	327.9308	503.3795	560.0414	609.4681	728.6947	767.9448	802.603	812.5731	837.9769	866.6414	870.6636	880.738	898.7383	923.8431	946.7666	954.1287	1007.4112	1048.8696	1063.9579	1081.8672	1102.6119	1117.4099	1150.2879	1161.7144	1171.9709	1201.4922	1223.9344	1258.4578	1262.6988	1282.6099	1374.342	1400.2863	1409.8229	1440.2842	1476.8391	1490.9922	1493.9555	1498.6741	3025.7192	3032.3208	3035.1984	3088.7136	3101.8944	3103.2996	3106.0977	3110.2136	3136.1524	3199.167	3210.4685
CC1C2C3C4C2N1C34C	C[C@H]1[C@@H]2[C@H]3[C@H]4[C@@H]2N1[C@@]34C	
InChI=1S/C8H11N/c1-3-4-5-6-7(4)9(3)8(5,6)2/h3-7H,1-2H3	InChI=1S/C8H11N/c1-3-4-5-6-7(4)9(3)8(5,6)2/h3-7H,1-2H3/t3-,4+,5-,6-,7+,8-/m0/s1
