15
gdb 53170	3.09073	1.03503	0.872	2.5396	75.77	-0.2327	-0.0345	0.1982	1341.0645	0.10989	-420.568297	-420.559529	-420.558585	-420.604056	30.339	
C	 0.0311032809	 1.5356503981	 0.0254424978	-0.499052
C	 0.0472102643	 0.0808553442	 0.0357406047	 0.079463
C	 0.0561105986	-1.123168854	 0.0474592232	 0.097386
C	 0.0433195912	-2.5664605056	 0.0589916151	-0.354192
C	 0.2283166808	-3.3090169578	 1.401684151	 0.03229
O	-0.8704581657	-2.9591026895	 2.2218122571	-0.219072
C	-1.0543968199	-4.0463138581	 1.2872368752	-0.116698
C	-1.3286052471	-3.3619517139	-0.0463268249	 0.420371
O	-2.145082912	-3.4753245962	-0.9037418963	-0.284214
H	 0.8637518799	 1.9408244672	-0.5599755946	 0.14885
H	-0.8988786861	 1.9170202786	-0.4103930002	 0.154008
H	 0.1104251414	 1.9384765172	 1.0410788866	 0.152196
H	 0.6967104185	-2.9863658174	-0.7183575604	 0.129614
H	 1.149141814	-3.6267208784	 1.8747638873	 0.126979
H	-1.3781840486	-5.0016422945	 1.6812406786	 0.132071
14.933	76.035	90.2046	159.832	246.1844	258.6468	386.5787	397.6232	503.3282	541.7525	604.9961	717.3913	809.9289	843.9718	854.4434	880.1611	933.3184	967.5221	1022.3134	1050.6598	1053.2561	1061.8354	1144.2685	1186.899	1211.0856	1246.6173	1325.1733	1353.5825	1414.2674	1476.5448	1477.3801	1913.7075	2371.8341	3023.0294	3028.2002	3089.5859	3090.7111	3197.5788	3210.6103
CC#CC1C2OC2C1=O	CC#C[C@H]1[C@H]2O[C@H]2C1=O	
InChI=1S/C7H6O2/c1-2-3-4-5(8)7-6(4)9-7/h4,6-7H,1H3	InChI=1S/C7H6O2/c1-2-3-4-5(8)7-6(4)9-7/h4,6-7H,1H3/t4-,6-,7+/m1/s1
