18
gdb 125893	3.69414	1.27586	1.01823	5.061	79.96	-0.2362	0.0148	0.251	1199.533	0.148325	-398.107846	-398.09943	-398.098486	-398.141485	30.624	
C	-0.2759188416	 1.6585126171	-0.1776513793	-0.399789
C	-0.0012381973	 0.1750912454	-0.0320302306	 0.053057
C	 0.7352030988	-0.5718581082	-1.2183591048	-0.410904
C	 1.8565514541	-0.8256174697	-0.2143660577	 0.273692
C	 3.0260253403	-1.2674720245	 0.3741589536	 0.137366
C	 4.1902551801	-2.0479893235	-0.139334983	-0.504821
N	 2.9734506312	-0.8315163544	 1.6771693808	-0.237731
N	 1.8641852644	-0.16711928	 1.930416918	-0.198374
N	 1.2102505998	-0.1764371149	 0.7631032867	 0.089378
H	 0.6086196376	 2.1859432812	-0.5462923552	 0.135348
H	-1.0978783504	 1.8181577033	-0.8825601903	 0.130875
H	-0.5618675175	 2.0949743368	 0.7835488296	 0.14702
H	-0.8801096064	-0.3621439688	 0.3346523935	 0.116861
H	 0.2190243679	-1.4599111399	-1.5891826604	 0.133108
H	 0.9910061237	 0.0766290571	-2.0597260497	 0.130815
H	 4.7065800968	-1.5248518041	-0.9516401201	 0.127731
H	 4.9030724969	-2.2039740262	 0.6730362578	 0.149215
H	 3.8869852515	-3.0282993869	-0.5225349788	 0.127153
58.3383	79.0554	173.0095	214.5724	258.747	276.1091	325.2907	429.5935	502.9645	630.4468	686.3002	698.0107	701.8303	760.504	875.6422	916.0416	981.3852	1024.3979	1062.1214	1069.8372	1083.0017	1102.6512	1171.2511	1184.4179	1198.878	1217.6415	1259.2977	1292.3554	1325.3959	1367.6822	1412.7069	1415.8127	1469.8839	1486.784	1487.0806	1489.1245	1496.1201	1512.1231	1601.7923	3035.3865	3042.8095	3070.6438	3077.1863	3085.6722	3117.4247	3121.1827	3125.6652	3133.0872
CC1CC2=C(C)N=NN12	C[C@H]1Cc2c(C)nnn12	
InChI=1S/C6H9N3/c1-4-3-6-5(2)7-8-9(4)6/h4H,3H2,1-2H3	InChI=1S/C6H9N3/c1-4-3-6-5(2)7-8-9(4)6/h4H,3H2,1-2H3/t4-/m0/s1
