20
gdb 88166	2.65328	1.32836	1.15664	0.641	74.74	-0.2387	0.073	0.3117	1162.9766	0.17138	-440.258869	-440.250041	-440.249097	-440.292505	33.548	
C	-0.0468243536	 1.4558141492	-0.2096786095	-0.400085
C	 0.0604453591	-0.0373673429	-0.0180752556	-0.047495
N	 1.4212124273	-0.6097180329	 0.0178068869	-0.387364
C	 0.5782093338	-0.6642160406	 1.2222405027	 0.259917
C	 1.0624059006	 0.0835042156	 2.4703406386	-0.142958
O	 0.6147361226	-0.6958211713	 3.5802302024	-0.263686
C	 0.6297169421	-2.0500171189	 3.1364701334	-0.123952
C	-0.0163858368	-1.9789926566	 1.7504077354	 0.04492
O	-1.4340614538	-1.9526552878	 1.8300774487	-0.429882
H	 0.7716954032	 1.9753705829	 0.2953917149	 0.126846
H	 0.0029842384	 1.7115405173	-1.2732752535	 0.123325
H	-0.9970503054	 1.8343451548	 0.1827352792	 0.117887
H	-0.703645527	-0.6173717202	-0.5339827546	 0.095935
H	 1.4395862785	-1.5150469046	-0.4467405685	 0.228285
H	 2.159660658	 0.1568021977	 2.4560426374	 0.107252
H	 0.6450026106	 1.0877971289	 2.5805131047	 0.11226
H	 1.6606656007	-2.4359604003	 3.0743284233	 0.093625
H	 0.056990455	-2.6539738856	 3.8433352263	 0.116212
H	 0.2305540199	-2.8325631772	 1.1121536738	 0.083589
H	-1.6639471931	-1.2675315976	 2.4694359441	 0.285368
56.3107	141.4854	174.6858	205.9509	226.732	296.3126	368.1683	386.551	451.6372	478.3079	512.5026	530.9228	728.8297	784.8009	829.665	873.1568	884.844	946.6936	951.7359	1008.3114	1034.3044	1041.3863	1068.9129	1081.3548	1091.0356	1123.659	1131.1721	1206.0524	1234.8507	1248.54	1258.5096	1276.7944	1298.4344	1325.9007	1366.7163	1391.6363	1410.326	1427.5081	1468.1617	1489.0463	1496.3317	1503.3787	1516.456	2972.3606	3000.8115	3035.0828	3076.8227	3090.47	3097.6635	3110.7001	3112.4937	3128.396	3485.1237	3789.2712
CC1NC11COCC1O	C[C@H]1N[C@]21COC[C@H]2O	
InChI=1S/C6H11NO2/c1-4-6(7-4)3-9-2-5(6)8/h4-5,7-8H,2-3H2,1H3	InChI=1S/C6H11NO2/c1-4-6(7-4)3-9-2-5(6)8/h4-5,7-8H,2-3H2,1H3/t4-,5-,6+/m1/s1
