23
gdb 106729	2.41959	1.4719	1.10011	0.2122	90.7	-0.2207	0.0255	0.2462	1228.4184	0.205666	-351.167382	-351.15816	-351.157216	-351.200773	36.312	
C	 0.0090295028	 1.5159372245	-0.2986925428	-0.373749
C	-0.0187858847	 0.051934124	 0.1616935365	-0.278199
C	-1.4127756932	-0.5396625126	 0.1793171876	 0.326471
C	-2.0000731833	-1.0877350916	-1.1024442765	-0.362761
C	-1.697549936	-2.0388002143	 0.0455382139	 0.257784
C	-0.6512550695	-3.1200761468	-0.096645306	-0.487057
C	-2.8765868252	-2.2804617326	 0.9351414414	-0.122812
C	-3.2888548202	-1.1682201504	 1.5445995499	-0.09159
C	-2.4171200048	 0.0182474074	 1.1985969867	-0.332488
H	 1.0313127122	 1.9069218055	-0.3102682574	 0.107992
H	-0.4030209929	 1.6160949736	-1.3084070318	 0.117015
H	-0.5829353981	 2.1543667566	 0.365450786	 0.117444
H	 0.6257821075	-0.5416261311	-0.4969469349	 0.092099
H	 0.4202420013	-0.021355003	 1.1661127749	 0.0929
H	-3.0388308147	-0.8884220298	-1.3478025735	 0.103256
H	-1.3327535915	-1.1225992594	-1.9599233284	 0.099492
H	 0.1780123598	-2.801488146	-0.7346302845	 0.115987
H	-0.2355725557	-3.4079604834	 0.8757798494	 0.116823
H	-1.0824318565	-4.0202705803	-0.5509113607	 0.115915
H	-3.335622862	-3.2593716166	 1.0294077687	 0.088334
H	-4.1523162795	-1.0892882255	 2.1955373869	 0.09012
H	-1.9013522411	 0.4094124249	 2.0882126173	 0.099922
H	-3.0019647147	 0.855001317	 0.7946007771	 0.107105
94.1175	144.3426	185.6407	200.5049	236.1915	272.9438	282.3423	367.6	413.9928	449.9356	493.5012	568.3551	678.2132	731.3762	753.4101	773.5737	791.7841	892.7839	911.3403	940.9797	956.3995	962.258	966.4164	981.3939	1009.2221	1043.2094	1064.2713	1090.8529	1095.2518	1126.7609	1157.1344	1208.2171	1237.5984	1259.2694	1298.6948	1331.8765	1354.8118	1382.3548	1397.5218	1407.9203	1419.787	1471.0723	1477.3301	1490.0877	1492.2766	1498.2637	1501.7348	1508.2434	1675.3186	2995.7083	3013.1527	3023.9927	3031.823	3034.709	3056.0536	3079.0157	3102.3095	3103.182	3104.9756	3108.5775	3175.7437	3195.3476	3203.8503
CCC12CC1(C)C=CC2	CC[C@@]12C[C@]1(C)C=CC2	
InChI=1S/C9H14/c1-3-9-6-4-5-8(9,2)7-9/h4-5H,3,6-7H2,1-2H3	InChI=1S/C9H14/c1-3-9-6-4-5-8(9,2)7-9/h4-5H,3,6-7H2,1-2H3/t8-,9+/m0/s1
