19
gdb 105248	2.68927	1.27453	1.00197	2.869	71.44	-0.2642	0.0746	0.3388	1226.8483	0.157179	-460.11485	-460.105557	-460.104613	-460.148977	34.235	
C	 0.1924689671	 1.2048642853	-0.5152710609	-0.443166
C	 0.3502808198	-0.1557654268	 0.1126660228	 0.045648
O	 1.6349670449	-0.5276251572	 0.663639476	-0.298793
C	 0.5116583463	-0.4317193571	 1.5522232761	 0.294213
C	 0.6586487161	 0.6560541417	 2.617777842	-0.14123
O	 1.512166707	 1.7075787945	 2.2245531709	-0.412617
C	-0.0149934886	-1.7327410073	 2.0910523496	-0.014894
C	 0.5791363494	-3.0208658006	 1.7201673936	-0.16608
O	 0.840723269	-2.4322976385	 2.9979520001	-0.236414
H	 0.7057365726	 1.2327586979	-1.4824231603	 0.127879
H	-0.870040823	 1.397081639	-0.7012471919	 0.123144
H	 0.5872603321	 1.9910615175	 0.1269711541	 0.157086
H	-0.085589638	-0.9699900524	-0.470841989	 0.089218
H	-0.3210072577	 1.0910091843	 2.8480730147	 0.114275
H	 1.0282977226	 0.1671628436	 3.5320540627	 0.119695
H	 2.2354167121	 1.2877179174	 1.7398078243	 0.292355
H	-1.0624757751	-1.7055941277	 2.3986463851	 0.099809
H	-0.0343439692	-3.9203364643	 1.7373878875	 0.114838
H	 1.4214978326	-3.0251722093	 1.0333324725	 0.135033
74.3903	115.2374	165.2039	193.8604	208.6486	227.0401	291.817	310.9608	434.3437	462.5548	479.2152	493.1432	639.8474	696.3278	805.2278	848.7937	877.6344	903.1753	975.6305	991.3829	1056.5307	1067.2029	1081.7914	1109.0922	1131.4549	1160.0932	1162.7928	1183.4083	1214.9565	1242.9031	1289.1998	1344.6063	1378.1878	1409.7126	1432.1487	1439.5203	1473.0229	1501.9883	1509.4097	1515.532	1520.7059	2992.6	3039.5289	3058.9718	3082.167	3088.4042	3096.8729	3097.1571	3163.677	3193.5901	3762.1564
CC1OC1(CO)C1CO1	C[C@H]1O[C@]1(CO)[C@H]1CO1	
InChI=1S/C6H10O3/c1-4-6(3-7,9-4)5-2-8-5/h4-5,7H,2-3H2,1H3	InChI=1S/C6H10O3/c1-4-6(3-7,9-4)5-2-8-5/h4-5,7H,2-3H2,1H3/t4-,5-,6+/m1/s1
