19
gdb 65319	3.74454	1.01167	0.92258	3.903	80.97	-0.2571	0.0242	0.2813	1301.5044	0.159266	-382.047828	-382.03882	-382.037876	-382.081725	33.582	
C	 0.0049492928	 1.7352043737	 0.3023208253	-0.461766
C	-0.0558495764	 0.252455626	-0.0145199801	 0.311615
C	 0.951307607	-0.3129380158	-0.9696561727	-0.345531
C	 1.0620574114	-0.6574083348	 0.5101455914	-0.210824
C	 2.1410767894	-0.1265120888	 1.2923492333	 0.289747
N	 3.0064220977	 0.3092987322	 1.9254415517	-0.342586
C	-1.4530610164	-0.3070685694	 0.0403818033	-0.057037
C	-2.3083947683	-0.3540285979	-1.1735273659	-0.236389
N	-1.8388414428	-1.5987269482	-0.5390593865	-0.327313
H	 1.034417656	 2.0985682983	 0.3453097795	 0.141965
H	-0.5319513047	 2.3067237131	-0.4615832363	 0.127196
H	-0.4616539723	 1.9452655213	 1.2705339516	 0.13304
H	 0.6819121719	-1.1228440502	-1.6394494674	 0.122073
H	 1.6923688983	 0.3658046221	-1.3756605945	 0.14129
H	 0.762430893	-1.6608881025	 0.7943753174	 0.140861
H	-1.9441887787	-0.1157238463	 0.9934537092	 0.103527
H	-3.3769159916	-0.1742170906	-1.1015853341	 0.125524
H	-1.8564442475	-0.0523981374	-2.1151797804	 0.115506
H	-1.082069529	-2.0014256949	-1.0865595549	 0.229104
67.0894	112.9252	141.0259	201.8962	223.4361	270.2882	314.5606	361.8919	437.2512	480.4893	556.9665	607.1332	678.2587	791.1497	819.3608	848.1236	896.1266	916.9317	946.4571	960.2281	986.3645	1030.393	1073.963	1080.4865	1105.6325	1113.5445	1124.7658	1158.7985	1185.3786	1242.2092	1262.5184	1301.755	1315.2439	1398.8563	1417.5844	1424.1858	1483.1675	1492.2752	1504.0112	1510.0547	2350.0828	3038.5139	3102.2566	3109.3235	3116.2761	3124.2697	3138.0071	3166.3582	3196.8087	3224.9736	3499.9433
CC1(CC1C#N)C1CN1	C[C@]1(C[C@H]1C#N)[C@H]1CN1	
InChI=1S/C7H10N2/c1-7(6-4-9-6)2-5(7)3-8/h5-6,9H,2,4H2,1H3	InChI=1S/C7H10N2/c1-7(6-4-9-6)2-5(7)3-8/h5-6,9H,2,4H2,1H3/t5-,6+,7+/m0/s1
