19
gdb 38127	2.72242	2.08388	1.8254	1.3921	77.9	-0.2245	0.0158	0.2403	864.755	0.163734	-385.884005	-385.877873	-385.876929	-385.914017	26.877	
C	-0.0151015378	 1.5472908207	 0.0391852092	-0.245268
C	 1.5475656503	 1.4604033673	 0.0051999547	-0.123957
C	 1.9855331873	 1.2245617902	 1.4315868967	-0.042233
C	 1.412863243	 0.2125024908	 2.0826570229	-0.076928
C	 0.5184537062	-0.7149178683	 1.2841012592	-0.103637
C	 1.4404990605	-1.763956391	 0.6230580456	-0.065471
O	 2.1447598073	-1.0313414703	-0.3868572531	-0.269293
C	 1.3424284799	 0.0771625113	-0.735813054	 0.147931
C	-0.0105836652	 0.0027195686	 0.0026687987	-0.06244
H	-0.4610482653	 2.0558322819	 0.8957308446	 0.100233
H	-0.429528545	 1.9487108753	-0.8900527126	 0.098616
H	 2.1095164844	 2.2425443411	-0.5057828555	 0.061259
H	 2.6916882109	 1.9007191655	 1.90225557	 0.089861
H	 1.6299740884	-0.0234084205	 3.1197018646	 0.088036
H	-0.2709975422	-1.1707032638	 1.887325515	 0.07019
H	 2.1729354346	-2.1954117623	 1.3115586834	 0.106668
H	 0.8587656265	-2.5813815905	 0.1674110771	 0.085105
H	 1.3064700611	 0.1847137289	-1.823030394	 0.076299
H	-0.8549732751	-0.5272328748	-0.4437933924	 0.06503
240.7911	300.9763	368.4882	388.6067	468.3275	595.7509	637.131	676.0364	712.3177	761.5391	775.573	840.6387	872.3022	882.4201	906.3176	953.8371	966.1066	976.6521	983.6177	993.8722	1029.1915	1060.1717	1082.6826	1095.9987	1113.9588	1129.8048	1165.26	1210.414	1217.6188	1230.6179	1251.476	1266.7986	1300.5461	1314.375	1333.3329	1353.2649	1386.0644	1400.5395	1488.7082	1516.9804	1694.5837	2973.6065	3056.6792	3069.6068	3074.7292	3083.421	3086.548	3105.3342	3119.9848	3166.6432	3190.7677
C1C2C=CC3COC2C13	C1[C@H]2C=C[C@@H]3CO[C@H]2[C@H]13	
InChI=1S/C8H10O/c1-2-6-4-9-8-5(1)3-7(6)8/h1-2,5-8H,3-4H2	InChI=1S/C8H10O/c1-2-6-4-9-8-5(1)3-7(6)8/h1-2,5-8H,3-4H2/t5-,6-,7-,8-/m1/s1
