20
gdb 59971	2.97049	0.88877	0.74098	4.7784	71.63	-0.2445	0.0251	0.2697	1536.6644	0.170311	-477.460276	-477.450295	-477.449351	-477.495605	36.739	
C	 0.0094564329	 1.5774491255	-0.1435036628	-0.409531
C	 0.0773042535	 0.0642734866	 0.0483093541	 0.113963
O	 0.7766851209	-0.2617979769	 1.2611966739	-0.424839
C	-1.3115808484	-0.5882434025	 0.0024288967	-0.188677
C	-1.302580474	-2.1242255343	-0.0944534278	-0.132941
N	-0.7437404195	-2.747704506	 1.1156313999	-0.550373
H	-0.0256854749	-2.1446514402	 1.509198296	 0.254503
H	-2.526901038	-3.1926652592	 1.4436041597	 0.304026
H	-0.3118173357	-3.6383144911	 0.8917276554	 0.242757
C	-2.7600213032	-2.5959985109	-0.2873981167	 0.419073
O	-3.3785478647	-2.4134466858	-1.302777166	-0.351983
O	-3.2722762576	-3.188551546	 0.7969802957	-0.366036
H	 1.0084209086	 2.0147814611	-0.0652012334	 0.129686
H	-0.4075000579	 1.8319555695	-1.1223020796	 0.13099
H	-0.6307208159	 2.0384635932	 0.6194467708	 0.114363
H	 0.7005393412	-0.370515961	-0.742943621	 0.097771
H	 0.3845705398	 0.2604912278	 1.9708480437	 0.284009
H	-1.8794269412	-0.2819149902	 0.8926511827	 0.098245
H	-1.860249839	-0.2155006156	-0.8678509958	 0.135802
H	-0.7636884969	-2.403014044	-1.0102583956	 0.099192
56.6635	79.3909	142.1389	147.1815	238.8486	253.83	299.967	322.9703	350.6325	402.64	431.1371	468.0296	478.3636	552.6646	664.2011	734.297	834.5067	867.3645	890.665	908.0014	934.2972	971.5675	984.0178	1056.8004	1068.5161	1130.0046	1141.5098	1183.1697	1225.1968	1276.7016	1300.3633	1322.01	1355.2112	1367.4144	1396.3004	1406.7753	1418.1963	1443.2961	1469.93	1492.3517	1496.0266	1663.9625	1866.8492	3008.0884	3018.4141	3026.1166	3042.1356	3092.2063	3101.2945	3123.7432	3405.8122	3483.7946	3569.2426	3792.8805
CC(O)CC([NH3+])C([O-])=O	C[C@@H](O)C[C@@H](N)C(=O)O	
InChI=1S/C5H11NO3/c1-3(7)2-4(6)5(8)9/h3-4,7H,2,6H2,1H3,(H,8,9)	InChI=1S/C5H11NO3/c1-3(7)2-4(6)5(8)9/h3-4,7H,2,6H2,1H3,(H,8,9)/t3-,4-/m1/s1
