19
gdb 118746	3.54765	0.95634	0.88822	4.4251	72.13	-0.233	-0.0149	0.2181	1341.9651	0.156792	-460.167179	-460.157903	-460.156959	-460.201635	35.114	
O	 0.3995739747	 0.378157835	-0.5827740031	-0.416129
C	-0.2935070798	 0.2349588656	 0.6617441414	-0.09409
C	-1.5991193195	-0.5112038476	 0.4045866091	-0.256191
C	-1.4174494362	-1.9402582301	-0.1243084416	 0.417802
O	-0.8138236437	-1.9633737263	-1.3943793524	-0.491977
C	-0.8065174127	-2.938532715	 0.9341211649	-0.408759
C	-2.2116109275	-3.5296254046	 1.1020196874	 0.409004
O	-2.7194116186	-4.2406305329	 1.9209827687	-0.296503
C	-2.7382320372	-2.7688673954	-0.1191281918	-0.39295
H	 1.2867643798	 0.7061344656	-0.4097646604	 0.297712
H	 0.3246178298	-0.3184131613	 1.3837166035	 0.1017
H	-0.5076875738	 1.2226836378	 1.0938039909	 0.103039
H	-2.1649791556	-0.5346123734	 1.3435381358	 0.107258
H	-2.1956885434	 0.0542003793	-0.3210502093	 0.120101
H	-0.1473469971	-1.2607773749	-1.4089073148	 0.286478
H	-0.1278466994	-3.6458898114	 0.4473497887	 0.136766
H	-0.3312927567	-2.5469417135	 1.8379610703	 0.112921
H	-3.6885993443	-2.2397315483	-0.0098307944	 0.120991
H	-2.7852337686	-3.4129274285	-1.003353763	 0.142825
51.8805	63.6308	202.203	215.914	281.6357	294.5947	340.4681	383.8928	391.8102	428.7695	485.6139	527.6576	569.8816	631.4643	675.4337	727.8739	827.5348	889.9029	911.6899	942.2352	968.2561	995.6175	1034.3743	1082.3049	1103.9969	1129.3226	1141.1775	1184.1303	1198.8047	1249.4031	1263.6234	1280.4003	1324.2309	1373.9384	1415.0021	1433.514	1443.5595	1462.0897	1470.2279	1519.2608	1891.312	2990.7879	3021.5501	3038.9361	3053.1003	3058.7324	3080.6565	3113.5886	3115.9281	3706.3045	3835.6356
OCCC1(O)CC(=O)C1	OCCC1(O)CC(=O)C1	
InChI=1S/C6H10O3/c7-2-1-6(9)3-5(8)4-6/h7,9H,1-4H2	InChI=1S/C6H10O3/c7-2-1-6(9)3-5(8)4-6/h7,9H,1-4H2
