16
gdb 125419	3.05236	1.46772	0.99868	4.824	78.8	-0.2002	-0.0596	0.1406	1139.1936	0.125752	-430.258618	-430.250303	-430.249359	-430.291533	31.619	
C	-0.0544816279	 1.5069124867	-0.0176406476	-0.496011
C	-0.016319986	 0.0048288617	-0.0362624732	 0.305292
N	-0.0190338977	-0.6038373079	-1.1725318034	-0.302231
C	 0.0025566171	-2.0013340691	-1.2168885218	 0.424108
N	 0.0160141013	-2.5992280471	-2.348228786	-0.536925
N	-0.0001231707	-2.628438663	 0.031982203	-0.299943
N	 0.0355982391	-2.0249175275	 1.2410599091	-0.250604
C	 0.0158835345	-0.7303136876	 1.2293144822	 0.310062
N	-0.0649841625	-0.0453409639	 2.4406101065	-0.566212
H	 0.8637931622	 1.9182805212	 0.4216572927	 0.132387
H	-0.1495620634	 1.87941395	-1.0373325015	 0.159411
H	-0.891502145	 1.8646207798	 0.59148367	 0.150521
H	 0.033771457	-3.612901538	-2.2288987266	 0.196216
H	 0.0056682745	-3.6351267578	 0.0796680837	 0.264149
H	 0.0835566075	-0.6592418152	 3.2318257187	 0.256681
H	 0.5154067301	 0.7802588078	 2.4995382644	 0.2531
55.7839	174.8499	210.9873	296.2287	297.0122	336.2559	360.5377	393.299	500.8855	529.3564	529.8318	583.3143	658.7643	703.7988	722.9776	775.4519	801.6075	815.7077	926.328	1026.1037	1051.1925	1087.9848	1119.9319	1204.0527	1265.7133	1331.0782	1397.2245	1434.1825	1461.5199	1470.968	1479.7943	1601.1437	1636.965	1700.4891	1705.1928	3025.2925	3086.0791	3158.8685	3469.1538	3541.3113	3629.0155	3642.4325
CC1=NC(=N)NN=C1N	Cc1nc([NH])[nH]nc1N	
InChI=1S/C4H7N5/c1-2-3(5)8-9-4(6)7-2/h1H3,(H2,5,8)(H2,6,7,9)	InChI=1S/C4H12N5/c1-2-3(5)8-9-4(6)7-2/h2-4,6-9H,5H2,1H3
