19
gdb 74984	2.83494	1.40626	1.14737	0.9599	76.89	-0.2392	0.0135	0.2526	1133.0087	0.158938	-423.022874	-423.014535	-423.013591	-423.055684	32.32	
C	 0.2106930164	 1.4841721713	 0.0955664288	-0.487015
C	 0.00376559	 0.0052464337	 0.0102906305	 0.31716
C	 0.1079177585	-0.7599977599	-1.0830901375	-0.181997
C	-0.1537655605	-2.2043228677	-0.7911819409	 0.015763
O	 1.0490975505	-3.0199879434	-0.6582870254	-0.295215
C	 0.9356810879	-3.0390864461	 0.778082983	-0.136917
C	-0.3993442951	-2.251279853	 0.7478466446	 0.353359
O	-1.5340605084	-2.9031454239	 1.2570866457	-0.482285
C	-0.3780287014	-0.7980033098	 1.2382841821	-0.354852
H	 1.0130529512	 1.7277064217	 0.8035163374	 0.129123
H	 0.4697180558	 1.9136763211	-0.8755357508	 0.127048
H	-0.6916880275	 1.9875595094	 0.4651405403	 0.129515
H	 0.3675378308	-0.3937434217	-2.0706813888	 0.092568
H	-0.8803203242	-2.6903631878	-1.4534269131	 0.072734
H	 0.8479367846	-4.0604543172	 1.1738607975	 0.091153
H	 1.778424108	-2.538280382	 1.2717433612	 0.099984
H	-1.5455886545	-3.8049426054	 0.9183538276	 0.282962
H	 0.3240970305	-0.6420592056	 2.0673786513	 0.105704
H	-1.3715009524	-0.5201404536	 1.6121148366	 0.121209
79.4498	144.3719	189.9489	273.4128	289.4232	353.6311	370.5479	399.8348	435.8695	499.6601	547.088	668.8121	702.4796	835.8205	865.6347	874.9374	917.8393	944.0185	964.6845	991.9642	1009.8134	1025.9574	1045.5411	1089.6984	1115.4922	1144.0698	1159.0064	1175.8096	1235.0585	1270.784	1287.0423	1323.6002	1336.592	1367.7078	1399.5364	1413.5391	1476.9071	1478.8379	1486.4044	1517.4046	1706.3378	2997.7534	3018.2766	3023.5506	3035.5192	3044.8459	3055.6185	3066.48	3115.7014	3187.8285	3805.6876
CC1=CC2OCC2(O)C1	CC1=C[C@H]2OC[C@@]2(O)C1	
InChI=1S/C7H10O2/c1-5-2-6-7(8,3-5)4-9-6/h2,6,8H,3-4H2,1H3	InChI=1S/C7H10O2/c1-5-2-6-7(8,3-5)4-9-6/h2,6,8H,3-4H2,1H3/t6-,7+/m1/s1
