24
gdb 100429	2.81705	0.79445	0.68478	0.7388	89.6	-0.2428	0.0322	0.275	1778.235	0.213897	-405.567484	-405.555735	-405.554791	-405.606431	41.166	
C	-0.2375213142	 1.286483309	-0.0310939619	-0.226719
O	 0.1387874127	-0.0791406988	 0.1297061521	-0.240541
C	 0.6316144126	-0.6985843083	-0.9682479909	 0.408802
C	 0.9962955996	-2.1287168659	-0.6543319209	-0.489549
N	 0.7434908407	-0.0800740635	-2.067679101	-0.306295
C	 1.2946744419	-0.7561568809	-3.2296460345	-0.139662
C	 0.9231646704	-0.0171555252	-4.5246954139	 0.050789
C	 1.6680588079	-0.6169397207	-5.7224297173	-0.393549
C	-0.5932075454	-0.0191036643	-4.7467550588	-0.379905
H	 0.6134554934	 1.8902834362	-0.3589214251	 0.131327
H	-1.0335379296	 1.3879831076	-0.7745964767	 0.13099
H	-0.5865680428	 1.6139654554	 0.9495157821	 0.121355
H	 0.7746700389	-2.3589474033	 0.387654364	 0.140471
H	 0.4391856988	-2.8166880269	-1.2981214071	 0.145094
H	 2.0608669464	-2.3015097584	-0.8411149978	 0.142845
H	 2.3921777856	-0.7934388849	-3.1464591898	 0.092038
H	 0.9557016854	-1.8032125322	-3.3084694364	 0.08186
H	 1.2469954231	 1.0242366203	-4.3957146207	 0.077123
H	 1.3878858572	-1.66635335	-5.8768252162	 0.108291
H	 1.432355979	-0.0760184353	-6.6445486854	 0.109996
H	 2.7539608791	-0.5804378249	-5.5811800409	 0.106502
H	-0.9626725385	-1.0394191801	-4.9116130923	 0.101212
H	-1.1102388631	 0.3904132363	-3.8750738524	 0.123137
H	-0.8671463594	 0.5777661789	-5.6229276481	 0.104388
10.8367	71.1595	78.0015	110.2088	171.7423	182.6089	221.1111	238.8383	257.0711	268.6394	294.7877	357.6075	415.6543	449.2996	486.2069	581.9062	631.9071	823.0979	840.6714	907.2758	928.0131	951.3394	972.7674	982.615	1053.6866	1076.6638	1107.439	1141.3191	1165.2631	1180.4692	1197.8979	1221.2956	1277.483	1293.5366	1327.3467	1370.3475	1389.2857	1396.413	1405.9002	1421.3764	1466.6429	1471.2177	1474.8568	1485.4321	1486.4313	1489.562	1494.1459	1500.1953	1503.1306	1512.174	1743.8605	2953.2933	2991.7528	3019.1075	3020.7127	3026.7641	3041.4533	3047.6056	3083.4508	3089.5794	3098.0237	3104.9858	3111.025	3117.6088	3143.9031	3153.8906
COC(C)=NCC(C)C	COC(=NCC(C)C)C	
InChI=1S/C7H15NO/c1-6(2)5-8-7(3)9-4/h6H,5H2,1-4H3	InChI=1S/C7H15NO/c1-6(2)5-8-7(3)9-4/h6H,5H2,1-4H3
