21
gdb 96325	2.31833	1.50269	1.1219	2.6891	74.44	-0.2566	0.0741	0.3307	1170.4623	0.183374	-461.364256	-461.355378	-461.354433	-461.397823	34.207	
C	 0.4573680235	 1.5003596464	 0.1118365435	-0.401607
C	 0.0671399854	 0.033904899	-0.022726252	 0.135291
C	 0.1455266399	-0.4532954848	-1.482758001	-0.235979
C	 0.3657689713	-1.9682986243	-1.7037817892	 0.1129
O	 1.7431257081	-2.2897317138	-1.773376974	-0.432607
C	-0.3191612605	-2.889490118	-0.6763585693	-0.110778
O	 0.4413832945	-2.9924300323	 0.5237499409	-0.243151
C	 0.3589929833	-1.8817243309	 1.3787655427	 0.002108
O	 0.9209707969	-0.7143122582	 0.8534928788	-0.250914
H	 1.5073038685	 1.6347373166	-0.1659674778	 0.131946
H	-0.154822778	 2.1235783403	-0.5471686258	 0.116808
H	 0.3249808913	 1.8436382464	 1.1412335318	 0.119361
H	-0.966428806	-0.0928272542	 0.3362129184	 0.067847
H	-0.7786540725	-0.1404469456	-1.9855469844	 0.094321
H	 0.9712857452	 0.0485261972	-1.9983511634	 0.114121
H	-0.0457982683	-2.2164537902	-2.6900987803	 0.084065
H	 2.0427324715	-2.3696054393	-0.8588269604	 0.287359
H	-1.3470417999	-2.557831612	-0.4613004003	 0.088935
H	-0.359742788	-3.905501076	-1.0772098913	 0.119445
H	-0.6949371764	-1.7010575111	 1.6571004881	 0.082797
H	 0.9437597901	-2.1483852453	 2.2623500249	 0.117733
54.1707	134.3268	227.4844	237.7934	282.8502	317.0559	337.6583	374.2587	396.4385	408.7602	483.1319	518.0048	644.9303	714.0701	796.93	823.6435	883.5459	912.3132	967.1757	975.0392	1025.9407	1069.4047	1073.09	1096.663	1125.9235	1148.4536	1161.9117	1210.0628	1240.678	1284.799	1310.4092	1322.2212	1339.0836	1362.1622	1388.6099	1398.1105	1403.4875	1411.9814	1441.0784	1449.4011	1472.2173	1485.5586	1485.8945	1496.3448	1504.0654	2940.6591	2970.6641	2990.2199	3019.8199	3037.2992	3042.4289	3078.2629	3096.9745	3104.7565	3116.1266	3122.0521	3775.507
CC1CC(O)COCO1	C[C@H]1C[C@@H](O)COCO1	
InChI=1S/C6H12O3/c1-5-2-6(7)3-8-4-9-5/h5-7H,2-4H2,1H3	InChI=1S/C6H12O3/c1-5-2-6(7)3-8-4-9-5/h5-7H,2-4H2,1H3/t5-,6+/m0/s1
