20
gdb 117582	2.43297	1.00368	0.78527	2.1028	81.62	-0.2398	0.0389	0.2787	1485.299	0.168597	-403.070085	-403.059954	-403.05901	-403.105772	36.67	
O	-0.2553566864	 1.6562667249	-0.2398636576	-0.420856
C	-0.0431646055	 0.2726295866	 0.0016874142	-0.069868
C	-1.3452881642	-0.5295042261	-0.0711380548	-0.197763
C	-1.1562344246	-2.0216634413	 0.2689279685	-0.146046
C	-2.4556483963	-2.6979959029	 0.3893387274	 0.315816
C	-3.5175570201	-3.2587783298	 0.4640078379	-0.458993
N	-0.2212156785	-2.623585104	-0.698074348	-0.075992
C	-0.16757623	-4.0734175578	-0.8322903899	-0.226347
C	-0.7487638453	-3.2320125962	-1.9158846074	-0.22709
H	-0.5098472001	 1.7563898005	-1.1624849419	 0.280124
H	 0.7014657933	-0.1527648566	-0.6825265076	 0.111177
H	 0.3736772051	 0.2107396642	 1.0136590279	 0.107471
H	-2.0725533985	-0.0929877768	 0.6203397485	 0.117138
H	-1.7758253781	-0.4534695515	-1.0782824168	 0.097066
H	-0.6546433228	-2.0886643943	 1.2445688748	 0.114537
H	-4.4575116024	-3.7465954869	 0.5475027487	 0.199258
H	 0.8293765265	-4.4941205376	-0.9280205677	 0.116627
H	-0.8696558817	-4.6686422095	-0.2527439404	 0.124274
H	-1.8280329334	-3.2805361431	-2.0405211854	 0.125084
H	-0.184721827	-3.0244881218	-2.8206755602	 0.114382
68.5783	76.6478	108.5961	124.9774	153.156	234.5635	286.2432	304.943	334.3078	369.346	452.5029	578.7613	588.3445	626.5271	663.7534	719.8362	808.8997	825.6731	904.4489	930.6163	986.5265	1022.3337	1044.5049	1068.2196	1073.0892	1105.8159	1119.4022	1127.5971	1163.8227	1181.2151	1195.3099	1273.5518	1300.0892	1321.4706	1343.4151	1351.0092	1397.2167	1419.0016	1481.0383	1482.7882	1511.5657	1515.3401	2220.5295	3007.892	3024.4279	3031.2067	3066.2087	3094.8797	3104.6287	3106.8007	3185.9512	3199.1841	3500.6709	3817.9995
OCCC(C#C)N1CC1	OCC[C@@H](C#C)N1CC1	
InChI=1S/C7H11NO/c1-2-7(3-6-9)8-4-5-8/h1,7,9H,3-6H2	InChI=1S/C7H11NO/c1-2-7(3-6-9)8-4-5-8/h1,7,9H,3-6H2/t7-/m1/s1
