12
gdb 124286	4.42993	1.12765	0.90385	3.5819	58.4	-0.2968	-0.1005	0.1963	1176.9906	0.07537	-509.789122	-509.781262	-509.780318	-509.822732	26.883	
C	 0.1761968329	 1.4681577461	 0.0412017763	-0.485627
C	 0.0152786461	-0.0302862042	 0.0373022935	 0.308035
O	-0.1345949518	-0.7160811934	 1.0170176243	-0.264475
C	 0.0492063692	-0.6890409524	-1.3118737968	 0.350962
N	 0.2018549837	-0.0815201021	-2.4334519861	-0.148435
O	 0.1669991603	-1.1005038639	-3.3966151152	-0.222615
C	-0.0115856485	-2.3049426267	-2.7680283186	 0.519532
O	-0.0865660411	-3.3683568566	-3.2763395923	-0.340064
O	-0.0870445233	-2.0284583868	-1.4152574374	-0.209443
H	 1.1286035229	 1.7493457847	-0.419291275	 0.166984
H	-0.6129916536	 1.9367609544	-0.5552799804	 0.166974
H	 0.1343888133	 1.8257904109	 1.0697939578	 0.158171
48.7811	101.9916	137.8226	161.9123	286.7624	337.216	451.7052	544.699	564.5493	620.543	703.5587	768.9323	772.5179	884.8844	930.2943	959.1637	1005.4715	1046.9768	1112.7403	1181.9762	1376.222	1406.5738	1457.2836	1464.5981	1642.4586	1815.1132	1966.8889	3050.5969	3114.2832	3166.9608
CC(=O)C1=NOC(=O)O1	CC(=O)c1noc(=O)o1	
InChI=1S/C4H3NO4/c1-2(6)3-5-9-4(7)8-3/h1H3	InChI=1S/C4H3NO4/c1-2(6)3-5-9-4(7)8-3/h1H3
