19
gdb 8533	3.93218	1.94479	1.57871	1.5824	76.14	-0.223	0.0942	0.3171	888.608	0.165288	-327.840965	-327.833585	-327.832641	-327.871969	29.31	
C	-0.1481941195	 1.5818715456	 0.0407729772	-0.423505
C	-0.0267666429	 0.0740428928	-0.0639990208	 0.063529
C	 0.8917268155	-0.5845759471	-1.0931739889	-0.117401
C	 2.1201369406	-0.2833250839	-0.1860598489	-0.008381
C	 2.6046608315	-1.7315832631	-0.1625799405	-0.30473
C	 1.0728980393	-1.8054497124	-0.1255705827	 0.377626
C	 0.196703145	-3.010512337	 0.0517079648	-0.518311
N	 1.0064575271	-0.5863662045	 0.8557944102	-0.202319
H	 0.8143628081	 2.0844803255	-0.0912250605	 0.116042
H	-0.8342771823	 1.9649303695	-0.7226456479	 0.115296
H	-0.5451250211	 1.864357446	 1.0214761657	 0.126219
H	-1.0133919404	-0.3915413606	 0.0537377803	 0.064516
H	 0.8486417103	-0.5972033139	-2.1891661602	 0.055934
H	 2.7022576741	 0.6360119652	-0.1250104438	 0.080561
H	 3.0959728584	-2.1056964868	-1.0651111303	 0.093194
H	 3.1239776076	-2.0529085587	 0.7452762874	 0.102674
H	 0.4425754832	-3.5252490814	 0.9861106178	 0.131631
H	-0.8634901974	-2.7401381222	 0.0816014653	 0.125012
H	 0.3431350128	-3.714373583	-0.7746842542	 0.122412
193.7787	197.1555	206.6841	240.9806	311.2818	320.6128	448.6633	529.0733	634.5808	693.8253	738.45	818.0276	840.4405	847.0334	861.2083	904.5501	956.5546	1006.7039	1024.7575	1037.6374	1049.4045	1088.6211	1104.6206	1139.3925	1146.9857	1173.1013	1188.928	1213.3849	1246.7713	1270.4198	1295.5911	1328.7517	1399.9993	1408.5604	1418.5855	1483.5084	1487.3682	1492.9178	1494.1031	1494.7984	3021.419	3028.0695	3033.9655	3036.1417	3048.5266	3098.6663	3102.0022	3107.525	3108.7152	3112.2614	3118.0031
CC1C2C3CC2(C)N13	C[C@H]1[C@H]2[C@@H]3C[C@@]2(C)N13	
InChI=1S/C7H11N/c1-4-6-5-3-7(6,2)8(4)5/h4-6H,3H2,1-2H3	InChI=1S/C7H11N/c1-4-6-5-3-7(6,2)8(4)5/h4-6H,3H2,1-2H3/t4-,5-,6-,7+/m0/s1
