21
gdb 57649	2.84344	0.95074	0.90376	2.9309	79.05	-0.2478	-0.0239	0.2238	1413.2678	0.179031	-424.221844	-424.211421	-424.210477	-424.258127	37.779	
C	 0.0369834429	 1.6376006638	-0.0095020076	-0.436385
C	 0.0550527657	 0.107195118	 0.0536809761	 0.258617
O	 0.7621079014	-0.3635919426	 1.2005992151	-0.47397
C	-1.3615201507	-0.5245493653	-0.0166107994	-0.221321
C	-2.2354952053	-0.2434393429	 1.1878130729	 0.000031
C	-3.1519388445	 0.9568764543	 1.2418757446	-0.253175
C	-3.7293608237	-0.4274114412	 1.0911850567	-0.281521
C	 0.8435597178	-0.4488448504	-1.1318538955	 0.150539
O	 0.6755636846	-0.1036983318	-2.2721515963	-0.265343
H	 1.0530295113	 2.0275917148	 0.0999211049	 0.125316
H	-0.3582057507	 1.9692127887	-0.9726858259	 0.140073
H	-0.5855733498	 2.053065495	 0.7878409125	 0.120823
H	 0.4191107837	 0.0988789346	 1.9710749333	 0.286347
H	-1.8500959493	-0.1755351581	-0.933562424	 0.111793
H	-1.2379095974	-1.6108682909	-0.1169635836	 0.105821
H	-1.7975350565	-0.5507168825	 2.134394239	 0.079543
H	-3.2814265922	 1.4697850016	 2.1888246453	 0.111753
H	-3.1823646955	 1.6114817548	 0.3772220912	 0.116746
H	-4.1420158784	-0.7003769649	 0.1254061097	 0.116519
H	-4.2500718613	-0.865394772	 1.9353665206	 0.114313
H	 1.5823354678	-1.2298647132	-0.8465957596	 0.093481
33.513	61.6772	107.4131	153.0243	228.0131	251.3687	255.4357	271.8615	316.3564	333.6337	384.8875	435.0694	495.3595	635.2412	752.3724	782.8332	813.5706	836.1759	879.4281	920.1158	945.7936	953.1906	985.4438	1003.2273	1057.4711	1082.6803	1098.9262	1111.5426	1151.889	1192.1014	1200.8323	1202.9341	1231.8973	1285.3875	1318.9651	1379.5805	1391.3431	1407.6375	1413.2727	1466.4373	1472.9464	1493.405	1498.3782	1507.345	1835.9698	2898.0947	3019.5592	3046.2727	3071.0099	3119.2543	3129.7527	3131.4475	3133.4442	3136.1796	3207.6332	3222.8714	3833.9384
CC(O)(CC1CC1)C=O	C[C@@](O)(CC1CC1)C=O	
InChI=1S/C7H12O2/c1-7(9,5-8)4-6-2-3-6/h5-6,9H,2-4H2,1H3	InChI=1S/C7H12O2/c1-7(9,5-8)4-6-2-3-6/h5-6,9H,2-4H2,1H3/t7-/m1/s1
