22
gdb 116678	2.674	0.96369	0.81018	2.9902	87.06	-0.2253	0.0165	0.2419	1535.0247	0.190883	-404.331864	-404.321002	-404.320058	-404.368472	38.572	
C	 0.4618762957	 0.7058028239	 0.4284104956	-0.250038
O	-0.4389329355	 0.1514411061	-0.5225226134	-0.191179
C	-1.2102507449	-0.8582394422	-0.0749081304	 0.131237
N	-2.0050792003	-1.4463238679	-0.856315988	-0.270985
C	-2.8446223673	-2.480044592	-0.2868882596	 0.32994
C	-4.0807511628	-1.9232170154	 0.3954904095	-0.433451
C	-2.9928217821	-3.7456190231	-1.0876247295	-0.333949
C	-2.2453868336	-3.7796716889	 0.2323884287	-0.026614
C	-0.7575088481	-4.0511571361	 0.2510228156	-0.418553
H	 0.9696925492	 1.5301444727	-0.0734886622	 0.146774
H	-0.0681139376	 1.0935383276	 1.307045801	 0.126621
H	 1.2072459731	-0.0307514916	 0.7523394525	 0.127896
H	-1.075627797	-1.0934031746	 0.991646556	 0.080905
H	-4.6382419532	-1.2813275879	-0.2948860221	 0.127534
H	-4.7433418329	-2.7289187995	 0.7258669109	 0.11116
H	-3.8153414019	-1.3204057263	 1.2718339582	 0.104873
H	-3.9708558588	-4.2107632098	-1.1568036108	 0.101454
H	-2.3929902052	-3.8170969894	-1.9892657203	 0.114674
H	-2.7853630702	-4.2268101534	 1.0646391569	 0.074414
H	-0.257819138	-3.5965300089	-0.608254522	 0.128802
H	-0.2821209744	-3.6592678763	 1.1587331447	 0.103131
H	-0.5622170744	-5.1290194071	 0.2186094987	 0.115352
39.6328	73.3116	115.3176	150.0266	172.4092	203.5095	212.9534	241.6226	268.85	334.0648	377.1358	426.6206	453.4514	517.7636	570.8015	744.5961	784.5122	872.8128	930.6521	932.8678	989.0103	1002.6561	1018.3584	1055.5356	1064.7649	1120.468	1130.7546	1134.1029	1167.0716	1177.1826	1190.479	1255.4026	1270.8911	1319.9029	1398.7877	1405.2174	1412.1218	1421.3111	1482.7556	1483.8012	1487.2985	1494.6994	1496.6058	1498.5016	1500.6178	1506.1899	1751.1681	2998.7672	3016.4186	3022.3917	3025.5951	3076.6191	3076.7969	3089.4059	3105.9785	3108.8351	3123.801	3127.8905	3145.0176	3212.0752
COC=NC1(C)CC1C	COC=N[C@@]1(C)C[C@H]1C	
InChI=1S/C7H13NO/c1-6-4-7(6,2)8-5-9-3/h5-6H,4H2,1-3H3	InChI=1S/C7H13NO/c1-6-4-7(6,2)8-5-9-3/h5-6H,4H2,1-3H3/t6-,7+/m1/s1
