15
gdb 68723	2.47593	1.66816	1.3363	5.0819	69.75	-0.2763	0.0014	0.2778	983.8314	0.112119	-416.745426	-416.737745	-416.736801	-416.777568	29.014	
C	-0.0260780696	 1.5269014074	 0.038529441	-0.481448
C	-0.0441154972	 0.0309271376	 0.0316056003	 0.232693
N	 1.1574827728	-0.7227845912	-0.3074397612	-0.376895
C	 0.5736174663	-0.9526177105	 1.0248537625	 0.127492
C	 1.3540834352	-0.6874837459	 2.1930063648	 0.246102
N	 1.9623877321	-0.4871860192	 3.155948595	-0.34556
C	-0.6873244088	-1.8076463022	 0.9444546803	-0.064976
O	-1.818434426	-1.0034339194	 1.2896352313	-0.219312
C	-1.2760914597	-0.8740292059	-0.02981865	-0.047448
H	 0.9464449229	 1.8940552598	 0.3735138852	 0.15408
H	-0.2092534786	 1.9176731083	-0.9683024462	 0.134097
H	-0.8025356442	 1.9115121636	 0.7053843899	 0.146917
H	 0.9800632876	-1.5121576638	-0.9264749069	 0.241786
H	-0.779739757	-2.8821357291	 1.0426591063	 0.128538
H	-1.935185576	-1.0687316695	-0.8675026824	 0.123935
119.7566	140.3728	193.9031	216.7677	303.3225	387.1153	452.5342	546.6956	554.6643	589.788	642.4997	701.1852	795.7303	798.3202	860.0688	873.971	916.1415	983.2062	1046.7597	1066.5494	1078.6246	1112.9058	1131.7977	1185.4802	1238.7134	1248.5069	1329.2703	1359.4137	1404.2029	1441.9804	1483.5258	1489.0923	2358.651	3042.9644	3110.7432	3137.3943	3192.7683	3208.5877	3470.5177
CC12NC1(C#N)C1OC21	C[C@@]12N[C@]1(C#N)[C@H]1O[C@@H]21	
InChI=1S/C6H6N2O/c1-5-3-4(9-3)6(5,2-7)8-5/h3-4,8H,1H3	InChI=1S/C6H6N2O/c1-5-3-4(9-3)6(5,2-7)8-5/h3-4,8H,1H3/t3-,4+,5+,6-/m1/s1
