16
gdb 12770	3.89667	1.69588	1.30917	2.4313	68.63	-0.2191	0.0163	0.2355	945.5701	0.129428	-379.86867	-379.860659	-379.859715	-379.901049	29.561	
C	-0.0249805433	 1.3670257405	 0.0545305135	-0.341015
N	-0.0180107054	-0.0877189406	 0.0642584971	-0.326877
C	-1.0951041715	-0.7017070515	-0.146783879	 0.317104
N	-2.4722484405	-0.3123804802	-0.3455267367	-0.374115
C	-2.8900575513	-1.7033764721	 0.0167033303	-0.111523
C	-2.4013931661	-2.6023629205	-1.0778991108	-0.302875
C	-1.4147381819	-2.1598451249	-0.0276841904	 0.309219
O	-0.6472956237	-3.0703818143	 0.6508861974	-0.444087
H	 0.8341368033	 1.7227370058	-0.5231267026	 0.134192
H	-0.9335114969	 1.8119513091	-0.37421686	 0.11327
H	 0.1009766264	 1.7465490223	 1.0762642946	 0.123792
H	-2.78842392	 0.4069135664	 0.2970264586	 0.238424
H	-3.7019845383	-1.9009645966	 0.7022828209	 0.115492
H	-2.6687537165	-3.6490453289	-0.96175014	 0.129255
H	-2.3527689646	-2.2396052442	-2.1013604789	 0.122676
H	-0.1239582997	-2.5750322604	 1.293622906	 0.29707
90.9357	105.3815	182.8775	242.9087	263.6364	341.5875	403.5095	453.3851	514.4618	530.3451	685.1047	715.151	803.278	841.1773	885.8603	911.2352	921.2832	998.5128	1015.0398	1066.2263	1105.039	1121.5174	1129.4669	1162.9534	1188.2536	1267.6447	1317.1149	1381.8981	1420.3	1439.9523	1486.5191	1497.0769	1505.0097	1819.3355	2999.002	3062.5019	3087.3197	3109.8531	3205.428	3220.2521	3533.8593	3780.1527
CN=C1NC2CC12O	CN=C1N[C@H]2C[C@@]12O	
InChI=1S/C5H8N2O/c1-6-4-5(8)2-3(5)7-4/h3,8H,2H2,1H3,(H,6,7)	InChI=1S/C5H8N2O/c1-6-4-5(8)2-3(5)7-4/h3,8H,2H2,1H3,(H,6,7)/t3-,5-/m0/s1
