19
gdb 77253	2.78276	1.00692	0.92388	2.7164	73.48	-0.2584	0.0011	0.2595	1344.0325	0.155389	-460.168429	-460.1582	-460.157256	-460.203845	36.446	
C	 0.2384305482	 1.4715058684	-0.2509300201	-0.428057
C	 0.2054614886	-0.0209491544	-0.0087015016	-0.079952
C	 1.4641568222	-0.8761944834	-0.0458952027	 0.009042
O	 2.729834239	-0.2548405967	-0.1696230966	-0.191288
C	 3.1386387475	 0.0338926474	-1.425484386	 0.178533
O	 4.1966857278	 0.5361254028	-1.6548637167	-0.2737
C	 0.7235874743	-0.6666945185	 1.2519602809	 0.33991
C	 1.3448207967	 0.1282756014	 2.3761541814	-0.455653
O	-0.0756612017	-1.7436020815	 1.670319023	-0.462331
H	 1.1674371631	 1.927163227	 0.0983870824	 0.137355
H	 0.1450731693	 1.691027032	-1.3199731456	 0.12465
H	-0.5927362724	 1.9655177043	 0.2621972172	 0.130032
H	-0.6650694399	-0.5303987043	-0.4130876634	 0.107318
H	 1.4114100548	-1.8626451946	-0.497750965	 0.112184
H	 2.3939476202	-0.250650012	-2.1926866611	 0.08324
H	 1.9987642951	 0.9195496915	 2.0079229253	 0.142712
H	 0.5640324713	 0.5701399392	 3.0024154629	 0.129503
H	 1.955613804	-0.5287874444	 3.0070523869	 0.115197
H	 0.4800240818	-2.3443901743	 2.1808646385	 0.281306
53.7563	116.7498	128.6156	170.3093	178.5716	219.7438	231.4777	282.3591	294.1979	353.3127	404.1551	440.4613	497.4592	563.9324	694.7171	721.4381	804.7032	896.7798	966.95	984.6873	1024.697	1050.0847	1051.3232	1082.0268	1131.7565	1150.0697	1158.9367	1172.0868	1238.0269	1289.1087	1335.6741	1352.3648	1414.293	1420.0019	1424.0966	1454.1921	1485.733	1491.8625	1503.0419	1517.0058	1867.7269	2963.0528	3033.8712	3040.2245	3096.5626	3098.2678	3124.6952	3145.4074	3147.1943	3155.9091	3784.1843
CC1C(OC=O)C1(C)O	C[C@H]1[C@@H](OC=O)[C@]1(C)O	
InChI=1S/C6H10O3/c1-4-5(9-3-7)6(4,2)8/h3-5,8H,1-2H3	InChI=1S/C6H10O3/c1-4-5(9-3-7)6(4,2)8/h3-5,8H,1-2H3/t4-,5+,6+/m0/s1
