19
gdb 90725	4.4415	1.16603	1.07275	1.0369	76.17	-0.2318	0.0638	0.2955	1187.8417	0.158246	-422.970228	-422.962143	-422.961199	-423.002859	31.408	
C	-0.4002062173	 1.2104513677	-0.2133211444	-0.40583
C	 0.2387597862	-0.1505704388	-0.0295860948	 0.126119
O	 1.5365384103	-0.227097763	-0.6992492872	-0.310353
C	 2.2193028557	-0.4719608861	 0.539965139	-0.045411
C	 0.8999608668	-0.4400527248	 1.335639739	 0.042233
O	 0.9981052595	-1.8412783284	 1.6503229498	-0.32273
C	 2.2572669078	-1.9343766346	 0.9583615199	 0.44849
C	 2.6743274873	-3.1425177123	 0.1989920844	-0.326937
C	 3.389559171	-2.7512025332	 1.4871928761	-0.343317
H	 0.2378653543	 2.0022754557	 0.1922165504	 0.120477
H	-0.5571899746	 1.4127184777	-1.2769652356	 0.132657
H	-1.3708364364	 1.2490384751	 0.2931492148	 0.119397
H	-0.4234122522	-0.9595565704	-0.3592770016	 0.091947
H	 3.1097269054	 0.1450562582	 0.672291935	 0.088279
H	 0.6474108749	 0.1787374709	 2.198046581	 0.088684
H	 2.01120531	-3.9996631669	 0.2429257389	 0.127063
H	 3.1797614055	-3.0040129443	-0.7507412617	 0.12652
H	 4.3941408716	-2.3446073732	 1.4254957626	 0.116718
H	 3.1924520543	-3.3508474493	 2.3693067743	 0.125994
72.0965	160.625	212.1493	241.3339	254.9064	316.537	395.7373	417.2649	553.9834	593.6291	748.5777	772.9883	809.1936	854.9092	877.297	885.8192	896.1975	940.099	979.6478	988.5364	1011.2638	1042.9004	1062.2085	1066.2699	1073.1182	1089.5272	1131.3424	1183.639	1185.3303	1215.0724	1238.3055	1266.5153	1296.8881	1328.6033	1374.1445	1394.9081	1405.8936	1449.3109	1483.8884	1493.5302	1497.8903	3033.8942	3044.2467	3092.1472	3104.8212	3107.1914	3114.6266	3127.4586	3134.7032	3212.9994	3227.6798
CC1OC2C1OC21CC1	C[C@H]1O[C@H]2[C@@H]1OC12CC1	
InChI=1S/C7H10O2/c1-4-5-6(8-4)7(9-5)2-3-7/h4-6H,2-3H2,1H3	InChI=1S/C7H10O2/c1-4-5-6(8-4)7(9-5)2-3-7/h4-6H,2-3H2,1H3/t4-,5-,6+/m1/s1
