21
gdb 109653	2.17236	1.14653	1.02453	2.6385	80.61	-0.2471	-0.0204	0.2268	1332.0289	0.179086	-424.229467	-424.218751	-424.217807	-424.265295	38.173	
C	-0.1940678558	 1.5039895774	-0.232782933	-0.374809
C	-0.1028247548	 0.0374984171	 0.2110077235	-0.219851
C	-1.4213765621	-0.6874453183	 0.0413594853	-0.069646
C	-1.7605840896	-1.4291077951	-1.209321348	 0.063198
O	-0.8111881675	-1.5914765899	-2.2182030815	-0.419308
C	-1.5031302487	-2.2234487859	 0.0798149814	 0.16389
C	-0.2592385309	-3.0805838266	 0.2020732521	-0.494421
C	-2.7415039566	-2.7586810024	 0.7058212674	 0.092537
O	-3.7986038039	-2.1716817212	 0.7515415354	-0.277435
H	 0.7605458947	 2.0192645745	-0.0899177415	 0.116883
H	-0.4618098472	 1.5851387295	-1.2925037893	 0.10474
H	-0.9565707107	 2.044197261	 0.3380312543	 0.123925
H	 0.6805885877	-0.469922533	-0.3595508038	 0.109328
H	 0.2023088931	-0.0045130303	 1.2636162907	 0.105245
H	-2.2757670943	-0.2170659093	 0.5236370272	 0.107922
H	-2.797183918	-1.4169382859	-1.5427727835	 0.109819
H	-0.6874933522	-0.7411682459	-2.6530391433	 0.296001
H	 0.4364314375	-2.8836843085	-0.6143078898	 0.148464
H	 0.2612327425	-2.9132176062	 1.1510928489	 0.120886
H	-0.5271885993	-4.1419055691	 0.1545140157	 0.120166
H	-2.639554444	-3.7798791119	 1.137984112	 0.072467
63.6369	101.8654	127.1896	151.3002	180.4353	210.9516	217.6407	239.239	254.2438	301.9559	306.2147	443.2659	493.5385	596.7747	645.5307	726.7148	757.154	815.1137	852.1137	948.5929	984.9888	1013.7297	1029.6628	1050.5436	1090.2876	1108.9625	1132.5721	1164.8332	1186.7592	1246.5587	1274.873	1298.1015	1308.285	1344.174	1394.4824	1412.396	1417.3565	1427.5352	1445.5383	1486.0933	1494.995	1498.3307	1505.0671	1507.478	1797.4954	2874.0544	3029.1494	3034.2674	3036.9528	3078.5972	3089.9759	3098.7253	3108.9336	3116.9718	3137.332	3142.1758	3807.9931
CCC1C(O)C1(C)C=O	CC[C@H]1[C@@H](O)[C@]1(C)C=O	
InChI=1S/C7H12O2/c1-3-5-6(9)7(5,2)4-8/h4-6,9H,3H2,1-2H3	InChI=1S/C7H12O2/c1-3-5-6(9)7(5,2)4-8/h4-6,9H,3H2,1-2H3/t5-,6+,7+/m0/s1
