15
gdb 85715	1.92923	1.72587	1.17401	5.4282	69.23	-0.301	-0.0206	0.2804	1072.2429	0.111899	-416.809566	-416.800953	-416.800009	-416.843793	30.256	
C	 0.4718000778	 1.4224809134	-0.2951605323	-0.409537
C	 0.030722839	 0.0298705048	 0.0935978822	 0.143104
O	 0.6057634515	-0.9995586839	-0.7580750166	-0.277702
C	 1.323319363	-1.60732505	 0.3211340502	-0.017243
C	 2.7770252634	-1.5377137259	 0.1520186814	 0.3024
N	 3.922955632	-1.4964934937	 0.0129564137	-0.307969
C	 0.6758208186	-0.6300181138	 1.3574149166	-0.263516
C	 1.5362750042	 0.1809984773	 2.1962964372	 0.311561
N	 2.2055563753	 0.8413498809	 2.8680513416	-0.315366
H	 1.5604180415	 1.5178000145	-0.2724229214	 0.153161
H	 0.1228945855	 1.6426818006	-1.3080459429	 0.142217
H	 0.0422110919	 2.1621941094	 0.3878047331	 0.139067
H	-1.0612478976	-0.0526398891	 0.0947894436	 0.107104
H	 1.035858852	-2.6542650499	 0.4683931899	 0.143276
H	-0.0546602782	-1.1458003448	 1.9828894037	 0.149442
34.8183	103.5672	146.3109	202.5203	240.1352	260.7608	335.9485	415.5511	455.5642	509.7659	581.2098	630.1454	756.7711	803.6501	859.387	897.4576	992.5314	1019.5389	1057.0972	1085.6716	1110.9128	1153.0076	1197.8758	1254.2638	1302.8542	1339.8581	1356.7857	1392.3474	1417.5801	1480.9644	1490.3405	2362.0031	2363.1138	3045.8544	3049.9314	3053.4466	3104.6781	3121.1387	3132.4969
CC1OC(C#N)C1C#N	C[C@H]1O[C@@H](C#N)[C@H]1C#N	
InChI=1S/C6H6N2O/c1-4-5(2-7)6(3-8)9-4/h4-6H,1H3	InChI=1S/C6H6N2O/c1-4-5(2-7)6(3-8)9-4/h4-6H,1H3/t4-,5+,6+/m1/s1
