17
gdb 9093	4.0066	1.11619	1.00301	3.921	66.	-0.2497	-0.0282	0.2215	1171.884	0.140072	-401.036953	-401.027686	-401.026742	-401.072263	31.37	
C	 0.0335741647	 1.4802834155	 0.8123015621	-0.397892
C	 0.0363566874	 0.1285691784	 0.0781478714	-0.082526
C	 0.7465921912	-0.9949890415	 0.8500232999	-0.166154
N	 2.1853476902	-0.8055218856	 0.9604953734	-0.277283
C	 2.7861722957	-0.304379694	 2.0726753799	 0.154254
O	 2.2054258704	 0.0970654437	 3.0591149447	-0.325321
C	-1.3822255145	-0.2713919197	-0.2829844953	 0.159272
O	-1.8738836938	-1.3507548639	-0.0717777081	-0.245043
H	 1.0541283417	 1.8283278428	 0.9820546078	 0.142158
H	-0.4942348918	 2.2419143327	 0.2288332066	 0.115273
H	-0.4519398731	 1.3934845072	 1.7886624856	 0.143539
H	 0.5462640879	 0.2751534756	-0.8891630486	 0.094224
H	 0.3502945407	-1.0519835289	 1.8666075277	 0.152654
H	 0.5464830124	-1.9533411471	 0.3644713623	 0.126378
H	 2.7763386918	-1.1282609645	 0.2111506735	 0.248237
H	 3.890430023	-0.3012097718	 1.9768029664	 0.076272
H	-1.9673724138	 0.5353777809	-0.7831411494	 0.081961
31.6713	66.4136	101.288	162.1217	202.3626	230.4679	285.1945	300.7031	396.4988	441.5282	527.2079	657.2332	746.1644	799.1831	915.1316	920.1184	947.2055	993.0258	1032.1346	1090.9918	1147.4522	1167.51	1218.0187	1283.9228	1301.1993	1334.6744	1398.4022	1409.8106	1428.8506	1430.4474	1470.0889	1494.3304	1495.9332	1532.3928	1803.9421	1826.7386	2860.7498	2933.929	2973.5223	3042.9852	3073.8176	3111.9984	3126.0998	3135.7256	3635.3791
CC(CNC=O)C=O	C[C@@H](CNC=O)C=O	
InChI=1S/C5H9NO2/c1-5(3-7)2-6-4-8/h3-5H,2H2,1H3,(H,6,8)	InChI=1S/C5H9NO2/c1-5(3-7)2-6-4-8/h3-5H,2H2,1H3,(H,6,8)/t5-/m0/s1
