21
gdb 75516	2.44151	1.44107	1.04581	0.2814	95.9	-0.2085	-0.0257	0.1828	1234.5676	0.184146	-349.972985	-349.96443	-349.963486	-350.005839	33.526	
C	 0.0506677178	 1.5092962733	 0.0327008105	-0.478776
C	-0.0019282445	 0.0007770796	-0.032486668	 0.29922
C	-1.1665001184	-0.6591571867	-0.0997463587	-0.13933
C	-1.3375711166	-2.1507556	-0.0813818056	-0.265576
C	-1.3522203859	-2.7780251732	-1.4848462339	-0.246387
C	-0.0454115944	-2.7854715405	-2.2245405429	-0.042144
C	 1.187356567	-2.3760196358	-1.886127922	-0.083469
C	 1.7552375194	-1.6911226668	-0.7217254836	-0.089141
C	 1.2952378623	-0.6772663767	 0.0347770387	-0.158111
H	 0.5999293061	 1.9266338553	-0.8198597581	 0.127476
H	-0.9515287816	 1.9458036394	 0.0413365261	 0.118434
H	 0.5755485772	 1.8445860328	 0.9364995877	 0.121434
H	-2.083302562	-0.073610412	-0.1568437064	 0.075563
H	-0.5384691663	-2.6160613089	 0.5045520222	 0.114139
H	-2.2845325087	-2.3970453179	 0.4131473702	 0.093133
H	-1.6981657095	-3.8215173667	-1.4181920343	 0.101937
H	-2.1072284973	-2.2723984765	-2.1028922969	 0.108239
H	-0.1150238612	-3.2862798181	-3.1902064216	 0.085577
H	 1.9614946419	-2.6290636844	-2.6116637608	 0.085382
H	 2.7827734409	-1.9945395166	-0.5210888949	 0.088231
H	 1.9980361541	-0.2533737096	 0.7527156824	 0.084169
103.1918	144.288	185.8377	228.1544	286.7116	300.0197	357.3278	383.3732	437.7432	543.9796	584.1424	634.8432	713.7915	768.5515	799.6875	817.2169	864.7944	878.5577	901.6204	962.6949	996.5277	1010.7868	1021.3135	1047.9122	1065.9085	1071.4514	1107.3503	1162.2599	1231.2745	1250.5766	1278.2255	1312.8359	1343.7141	1372.415	1396.4374	1410.7665	1439.6049	1466.0878	1472.706	1478.7138	1486.1314	1494.8508	1671.5979	1706.6234	1719.2517	2985.4354	3017.4476	3018.508	3033.4466	3067.5374	3080.2743	3099.7094	3109.2364	3111.8918	3127.5236	3131.8874	3136.2094
CC1=CCCC=CC=C1	CC1=CCCC=CC=C1	
InChI=1S/C9H12/c1-9-7-5-3-2-4-6-8-9/h2-3,5,7-8H,4,6H2,1H3/b3-2-,7-5-,9-8-	InChI=1S/C9H12/c1-9-7-5-3-2-4-6-8-9/h2-3,5,7-8H,4,6H2,1H3/b3-2-,7-5-,9-8-
