17
gdb 26130	2.58999	1.51018	0.9913	1.926	71.6	-0.198	0.0064	0.2044	1160.4454	0.136671	-455.174592	-455.165918	-455.164974	-455.208041	32.538	
C	 0.8197419022	 1.3428142171	-0.5887747026	-0.396499
C	-0.1167899048	 0.467781564	 0.2434620579	-0.000854
O	-0.7654005363	-0.5343667462	-0.5569191966	-0.423416
C	 0.5619565209	-0.1935006214	 1.4002443931	 0.244875
C	 0.2319170992	-1.2713105727	 2.1717275898	 0.190155
N	-0.9078995101	-2.0557994981	 2.1387276378	-0.598488
N	 1.2206182392	-1.4783575817	 3.1229679807	-0.302289
C	 2.0775094032	-0.5333058492	 2.8986102684	 0.060302
O	 1.7674390013	 0.2895621149	 1.8847302694	-0.186821
H	 1.6568560316	 0.7550845577	-0.9812742499	 0.1148
H	 0.2661966604	 1.7714222208	-1.4276028546	 0.125111
H	 1.2365200977	 2.1536368423	 0.0146041757	 0.133335
H	-0.9553503168	 1.084684815	 0.5937800867	 0.109565
H	-0.0688415282	-1.1029416796	-0.9075745493	 0.278137
H	-1.364849795	-2.0398917356	 1.2366285657	 0.254155
H	-0.7536795387	-2.9906327628	 2.4894998929	 0.251408
H	 2.9991201942	-0.3368270344	 3.4239158951	 0.146526
55.0249	157.1809	169.0143	241.991	295.796	310.6703	340.8921	367.9467	435.9903	458.2014	517.8411	626.2511	657.6916	698.2172	728.1393	776.2096	828.2949	888.4231	955.7163	1017.6704	1035.1299	1084.4212	1090.5058	1170.3851	1188.2863	1276.0038	1285.1562	1318.7377	1354.7885	1403.3803	1416.1821	1435.8229	1488.6594	1493.6389	1549.2935	1623.2551	1689.3633	3013.9492	3040.3262	3112.8513	3132.8454	3273.2	3549.5988	3657.4788	3781.3724
CC(O)C1=C(N)N=CO1	C[C@@H](O)c1c(N)nco1	
InChI=1S/C5H8N2O2/c1-3(8)4-5(6)7-2-9-4/h2-3,8H,6H2,1H3	InChI=1S/C5H8N2O2/c1-3(8)4-5(6)7-2-9-4/h2-3,8H,6H2,1H3/t3-/m1/s1
