18
gdb 18702	3.23856	2.21467	1.51753	1.7026	72.72	-0.2426	0.0251	0.2677	873.7587	0.155122	-347.80647	-347.799336	-347.798392	-347.837635	27.907	
C	 0.3889197343	 1.5530078649	 0.0156115679	-0.390142
C	-0.0391494064	 0.0730954343	 0.0005252359	-0.06379
C	 0.3646785784	-0.6035770743	-1.2849556872	-0.040942
C	 0.970187829	-1.7850069617	-1.3751623955	-0.065847
C	 1.338511756	-2.6440548325	-0.19736846	-0.296012
C	 1.1592671639	-1.9511466019	 1.1330806166	 0.053019
O	 1.9153411172	-0.7524631718	 1.3336502547	-0.262231
C	 0.490790963	-0.6452077762	 1.2262050719	 0.049037
H	 1.4796100931	 1.6281597551	-0.0016635417	 0.138717
H	-0.0090544068	 2.0837014306	-0.8550489645	 0.111165
H	 0.0245950357	 2.0593909753	 0.9155628322	 0.111254
H	-1.1384041243	 0.0443849308	 0.0706986856	 0.084028
H	 0.1305729321	-0.0549519569	-2.1950716569	 0.083566
H	 1.2182349318	-2.1845620651	-2.3554615601	 0.086953
H	 0.7294503082	-3.5602608147	-0.1987166981	 0.112457
H	 2.3791634933	-2.9858123474	-0.2881597904	 0.119518
H	 1.1377091294	-2.6073583992	 2.0042820441	 0.085438
H	 0.0000881418	-0.3793498992	 2.1642862455	 0.083813
92.8246	219.305	242.8809	283.2741	346.2872	410.443	476.6798	538.748	636.6328	714.2336	753.6131	794.7449	864.6665	903.7256	920.9581	928.8017	997.3782	1002.2753	1020.4675	1041.5302	1077.2571	1097.5535	1153.5478	1156.5429	1208.2872	1239.9706	1289.8822	1312.7637	1358.167	1369.3058	1378.0028	1397.6783	1432.5724	1463.535	1479.2339	1493.8307	1504.0974	1734.4273	2976.2435	3001.2721	3026.7825	3035.2024	3087.0831	3101.6158	3102.6476	3121.471	3138.4899	3163.6545
CC1C=CCC2OC12	C[C@H]1C=CC[C@H]2O[C@@H]12	
InChI=1S/C7H10O/c1-5-3-2-4-6-7(5)8-6/h2-3,5-7H,4H2,1H3	InChI=1S/C7H10O/c1-5-3-2-4-6-7(5)8-6/h2-3,5-7H,4H2,1H3/t5-,6+,7-/m0/s1
