23
gdb 94972	2.53743	1.71083	1.28487	0.2915	89.3	-0.258	0.0842	0.3422	1098.571	0.208545	-351.105083	-351.097258	-351.096314	-351.137139	32.494	
C	 0.0164923149	 1.563125013	 0.0562546937	-0.410268
C	 0.0391052878	 0.0356437439	 0.0266458434	-0.108813
C	 0.8547821617	-0.5588632763	-1.1833642611	-0.207628
C	 1.5514112536	-1.9008796848	-0.7271294136	-0.290042
C	 1.0942099082	-2.0835880424	 0.7303009727	 0.029693
C	 1.8608245679	-1.8582007506	 2.079617012	-0.084921
C	 2.2352681752	-0.4449194699	 1.5738770521	-0.25695
C	 0.7306419385	-0.6580026846	 1.1790881202	 0.367691
C	 0.5248243135	-1.2238655387	 2.6168298175	-0.313942
H	 1.031607892	 1.965058506	 0.1519121477	 0.115166
H	-0.4188057138	 1.9738707066	-0.8610278148	 0.110766
H	-0.5728586063	 1.9364563357	 0.9003294347	 0.112539
H	-0.9928461486	-0.3367730166	-0.029507145	 0.069586
H	 0.20515638	-0.7135807063	-2.0498350445	 0.096926
H	 1.6135711996	 0.1679192148	-1.4929442803	 0.098233
H	 1.2341965964	-2.744519475	-1.3455321366	 0.094362
H	 2.6359388952	-1.8258978884	-0.841056443	 0.104017
H	 0.2739799076	-2.8058914828	 0.8102964043	 0.057526
H	 2.5023764289	-2.557698839	 2.6192485395	 0.065729
H	 2.4310634923	 0.3125023188	 2.3381159383	 0.083933
H	 2.9692390599	-0.3806981347	 0.7689922274	 0.09086
H	-0.3190406064	-1.9058540252	 2.7575912295	 0.08839
H	 0.6243580723	-0.5283964634	 3.455019556	 0.087147
85.437	179.7038	225.3774	256.9727	325.0945	410.9349	479.1309	521.1085	574.3687	617.9026	654.7878	733.0991	797.8957	817.2335	851.9354	876.9929	905.3554	932.3786	943.7056	954.3215	975.6349	1010.2899	1016.8743	1062.5564	1069.8919	1086.8245	1112.0492	1123.44	1130.6502	1140.301	1167.313	1196.0332	1213.5425	1217.9329	1237.9518	1245.4645	1282.8015	1285.426	1319.7169	1321.9445	1379.7169	1394.7605	1410.5387	1482.8868	1494.5028	1496.8527	1500.7789	1508.156	1543.5068	3008.9299	3026.3155	3032.8969	3043.2617	3043.8075	3055.1394	3063.6555	3080.2208	3089.3629	3093.6015	3096.3933	3103.377	3109.9022	3121.9506
CC1CCC2C3CC12C3	C[C@H]1CC[C@H]2[C@H]3C[C@@]12C3	
InChI=1S/C9H14/c1-6-2-3-8-7-4-9(6,8)5-7/h6-8H,2-5H2,1H3	InChI=1S/C9H14/c1-6-2-3-8-7-4-9(6,8)5-7/h6-8H,2-5H2,1H3/t6-,7-,8-,9+/m0/s1
