23
gdb 101034	2.49454	1.03407	0.98182	1.4933	82.05	-0.253	0.0848	0.3377	1416.7851	0.202553	-425.402088	-425.391186	-425.390241	-425.438445	39.226	
C	-0.3291116149	 1.5249410868	-0.0589381585	-0.403137
C	-0.2860493311	 0.013842692	-0.2975680576	-0.254187
C	 0.7071670845	-0.4507496591	-1.3504996593	 0.41078
C	 1.2238563079	 0.4486275338	-2.3912962217	-0.233745
O	 2.0330724611	 0.0920278744	-1.2622032565	-0.288813
C	 0.7129026207	-1.9479893368	-1.6536662723	 0.080267
C	 1.1412274604	-2.7890162053	-0.4465761485	-0.421992
O	-0.5933616353	-2.2643569618	-2.1162514079	-0.252153
C	-0.7074053922	-3.5104807642	-2.7629200557	-0.231763
H	 0.6758559874	 1.9173018747	 0.1216660673	 0.134616
H	-0.7598245238	 2.0607557062	-0.9104156464	 0.115984
H	-0.9447510466	 1.7538620939	 0.8156373636	 0.111839
H	-0.0317412406	-0.4867561933	 0.6449035287	 0.105389
H	-1.2729418429	-0.3621496014	-0.58682632	 0.123309
H	 1.5453515155	 0.0338361611	-3.3458898013	 0.107401
H	 0.9128730332	 1.4897637549	-2.4237026912	 0.114119
H	 1.4395527676	-2.1128207209	-2.465790325	 0.065197
H	 1.2900784719	-3.8360049628	-0.7242927462	 0.11473
H	 2.0890301741	-2.4084809812	-0.0551328047	 0.137963
H	 0.388765509	-2.7503923754	 0.3457537083	 0.124381
H	 0.0109135682	-3.6034301739	-3.592883277	 0.103144
H	-0.5553834704	-4.3585755327	-2.0803025416	 0.109324
H	-1.7208590838	-3.570222419	-3.1677703465	 0.127347
59.2246	71.5628	77.7887	172.3907	182.9414	222.1836	237.59	242.6396	295.896	319.1661	348.9862	361.0804	489.4798	513.3777	561.8834	700.8693	777.9085	845.7513	874.0988	899.9602	942.5573	1007.2962	1030.4525	1058.4419	1092.1649	1112.7764	1128.4894	1141.8873	1151.8186	1167.7517	1181.955	1221.1981	1256.5127	1305.5756	1332.6943	1366.2643	1389.309	1395.9565	1401.0644	1436.3793	1476.9804	1483.0814	1486.4281	1493.1091	1498.9091	1505.0937	1511.3152	1513.5218	1533.4945	2968.6307	2977.978	3028.8919	3035.2378	3041.1543	3047.8549	3079.9821	3090.9457	3107.8783	3110.5405	3117.8821	3119.1314	3126.7243	3180.4243
CCC1(CO1)C(C)OC	CC[C@]1(CO1)[C@@H](C)OC	
InChI=1S/C7H14O2/c1-4-7(5-9-7)6(2)8-3/h6H,4-5H2,1-3H3	InChI=1S/C7H14O2/c1-4-7(5-9-7)6(2)8-3/h6H,4-5H2,1-3H3/t6-,7+/m1/s1
