15
gdb 96744	3.30977	0.83335	0.67261	2.8115	76.61	-0.2668	-0.0572	0.2096	1564.6061	0.111356	-413.004377	-412.994618	-412.993674	-413.040231	32.793	
C	 0.0573358332	 1.4387498794	 0.1645049499	-0.344878
N	 0.0369112566	-0.0051760938	 0.0705538126	-0.297624
C	 0.5158940663	-0.6083968314	-0.9413196744	 0.333807
N	 0.58081687	-1.983985241	-1.0007671807	-0.361122
C	-0.0798230548	-2.7475545346	 0.0446418253	-0.257545
C	 0.1937053274	-4.1753025554	-0.1150246156	 0.249292
N	 0.3942495174	-5.3043918928	-0.2490004916	-0.284923
C	 1.0748843107	 0.0454013993	-2.1179463762	 0.236701
N	 1.4973919634	 0.5850644837	-3.0488611475	-0.320739
H	 0.6455527624	 1.7328371914	 1.0411927955	 0.141436
H	 0.4681396066	 1.9473392286	-0.7177061923	 0.135315
H	-0.9635343121	 1.7982446948	 0.3332823571	 0.140652
H	 0.6484175898	-2.4075618518	-1.9132459989	 0.276794
H	 0.2894424625	-2.4051583289	 1.0164383635	 0.186965
H	-1.1674889794	-2.5850367874	 0.0564504232	 0.165872
34.7446	94.819	126.543	135.5779	163.6257	223.8129	244.8481	339.9476	352.6672	380.4054	409.5796	491.5785	551.7407	658.8764	716.7216	819.214	951.9542	997.0283	1089.6967	1125.8482	1134.354	1166.2135	1237.6531	1280.3713	1370.1751	1448.1312	1482.501	1487.2864	1502.4395	1517.99	1721.2067	2348.1569	2374.0507	3007.652	3010.1174	3078.8396	3084.1103	3085.4588	3633.8884
CN=C(NCC#N)C#N	CN=C(NCC#N)C#N	
InChI=1S/C5H6N4/c1-8-5(4-7)9-3-2-6/h3H2,1H3,(H,8,9)	InChI=1S/C5H6N4/c1-8-5(4-7)9-3-2-6/h3H2,1H3,(H,8,9)
