21
gdb 41818	2.40655	1.91969	1.43974	1.3344	77.03	-0.2427	0.0833	0.3259	1000.6804	0.186575	-424.251193	-424.24388	-424.242936	-424.282674	30.094	
C	-0.0241718233	 1.5130847511	-0.2378603987	-0.256624
C	 1.4297678263	 1.9670675998	 0.01618163	-0.224273
C	 1.9532128191	 0.8254964466	 0.886671179	 0.200849
O	 1.3866471723	-0.3288412391	 0.3376377795	-0.252685
C	 0.0214622841	-0.0247612094	-0.0226071358	 0.117634
C	-0.9062971157	-0.5773495562	 1.0663780365	-0.209201
C	-0.6546704411	-0.0087974457	 2.4735027498	-0.204557
C	 0.8216406933	 0.0393989695	 2.8937403775	-0.063035
O	 1.5390000374	 1.0724016695	 2.2298072097	-0.291877
H	-0.7087583314	 1.9856393054	 0.4699957847	 0.112632
H	-0.3667229623	 1.7662056219	-1.2431576613	 0.104181
H	 2.0023274176	 2.0061547327	-0.9153924719	 0.101473
H	 1.5054787334	 2.9323924046	 0.5186754045	 0.11207
H	 3.0404935804	 0.687776598	 0.8708697071	 0.077474
H	-0.1701728139	-0.5604625161	-0.9580106785	 0.077839
H	-1.9496628502	-0.4048531898	 0.7728776905	 0.093694
H	-0.7635411359	-1.6644878388	 1.0883200594	 0.104198
H	-1.0528760447	 1.0094630564	 2.5589773419	 0.105054
H	-1.2067330691	-0.6169539798	 3.200851122	 0.093839
H	 0.8883347164	 0.2936277688	 3.9564106342	 0.099498
H	 1.3004261874	-0.9370376295	 2.7483118998	 0.101819
117.2097	195.1382	284.4635	304.8756	360.3864	396.1443	433.5523	564.439	573.8902	674.9352	761.6601	793.2037	821.7824	844.1562	869.544	904.3867	930.4807	949.3853	959.9986	992.7438	1021.5344	1053.8572	1076.2144	1093.5507	1127.4458	1141.4439	1176.5629	1219.6163	1230.9731	1253.8626	1291.4345	1311.3298	1322.9479	1338.8134	1355.5557	1368.986	1376.4122	1392.8679	1400.8859	1413.7065	1470.962	1476.7494	1482.1635	1491.6738	1507.8903	3020.7906	3025.009	3030.2093	3042.8469	3050.7035	3057.5686	3064.4718	3072.7547	3075.1197	3082.2244	3113.8672	3131.4747
C1CC2OC1CCCO2	C1C[C@@H]2O[C@H]1CCCO2	
InChI=1S/C7H12O2/c1-2-6-3-4-7(9-6)8-5-1/h6-7H,1-5H2	InChI=1S/C7H12O2/c1-2-6-3-4-7(9-6)8-5-1/h6-7H,1-5H2/t6-,7-/m0/s1
