18
gdb 71264	2.53572	2.0768	1.45319	2.8492	75.62	-0.2448	0.0275	0.2724	939.2337	0.149306	-401.939152	-401.931949	-401.931005	-401.970384	29.344	
C	-0.0406317279	 1.5342916706	 0.0466517265	-0.487085
C	-0.0578786082	 0.0246439956	 0.051580663	 0.206548
C	 0.2995959784	-0.7393824486	-1.2847226096	-0.265853
C	-0.8364579422	-1.7140242031	-0.9977281484	-0.104734
C	-0.8275830661	-2.0929713399	 0.4683934856	 0.086625
O	 0.3672257556	-1.9513533034	 1.2268003152	-0.245814
C	 0.7713929868	-0.6404785285	 1.1299252294	 0.399271
N	 1.712739812	-0.1181071745	 1.7870916475	-0.560008
C	-1.3977365009	-0.7794032841	 0.0840862363	-0.160758
H	 0.9871273703	 1.8981708938	-0.0374896001	 0.14372
H	-0.6255950049	 1.9300397571	-0.7891667607	 0.110603
H	-0.4536249232	 1.9335733743	 0.9780726608	 0.127866
H	 0.0699746145	-0.1047446243	-2.1439964019	 0.11168
H	 1.3151888432	-1.1355772135	-1.3844725956	 0.111144
H	-1.3692111777	-2.315310948	-1.7254536169	 0.091738
H	-1.4358119401	-2.919922144	 0.808973785	 0.114339
H	 2.1367026173	-0.7997897903	 2.4185899112	 0.222927
H	-2.3933890969	-0.4076686293	 0.2875424127	 0.097791
143.4481	199.5763	247.9605	305.1347	327.905	420.8367	507.1698	579.5414	632.5893	713.7027	728.3712	758.8822	794.873	827.546	872.0049	890.8957	903.2374	957.3355	967.525	1004.9935	1020.9519	1028.4381	1033.312	1068.6132	1122.9701	1132.7194	1166.182	1202.2309	1210.7325	1245.125	1266.085	1315.0692	1373.1734	1406.8565	1415.2436	1484.8546	1489.9436	1497.7702	1780.1648	3040.2433	3048.837	3107.171	3110.9139	3119.788	3177.0118	3198.6146	3217.5097	3473.6495
CC12CC3C(OC1=N)C23	C[C@@]12C[C@H]3[C@@H](O[C]1[NH])[C@@H]23	
InChI=1S/C7H9NO/c1-7-2-3-4(7)5(3)9-6(7)8/h3-5,8H,2H2,1H3	InChI=1S/C7H9NO/c1-7-2-3-4(7)5(3)9-6(7)8/h3-5,8H,2H2,1H3/t3-,4+,5-,7+/m1/s1
