20
gdb 59809	3.903	0.85883	0.84196	1.2997	79.3	-0.2518	0.0232	0.275	1490.4584	0.170199	-440.300227	-440.290746	-440.289802	-440.335918	33.854	
C	-0.0063569416	 1.5386838356	 0.0337428285	-0.368592
C	 0.0018749387	 0.006503561	-0.0071835455	 0.045154
C	 0.6891445956	-0.5823795231	 1.2307264958	-0.369452
N	-1.3846994427	-0.4633470283	-0.038286538	-0.324057
C	-1.7813593233	-1.2249674388	-0.9523284327	 0.398623
C	-3.1872409049	-1.7661536846	-1.1235265988	-0.191137
O	-3.0357194985	-2.8079000809	-2.0779963626	-0.236913
C	-1.9145055073	-2.4593390336	-2.8427059761	 0.022739
O	-1.0343450896	-1.733596702	-1.9885790906	-0.243714
H	 1.015785295	 1.9277993983	 0.0833843816	 0.107186
H	-0.4870034573	 1.951570818	-0.8582457063	 0.110148
H	-0.5578202739	 1.8934481819	 0.9102069657	 0.120549
H	 0.55261714	-0.3181312149	-0.9003211863	 0.083093
H	 0.1512060874	-0.2930019812	 2.1390472571	 0.120755
H	 0.7118553471	-1.6751291096	 1.1828529542	 0.113633
H	 1.7198595845	-0.220908644	 1.3063091927	 0.10793
H	-3.589270755	-2.1789282394	-0.1973130619	 0.147718
H	-3.8628015385	-0.9765087941	-1.4865307921	 0.123293
H	-1.4145094899	-3.3677386824	-3.1886120116	 0.13094
H	-2.1850622958	-1.8182526579	-3.698305403	 0.102102
20.2231	98.6765	143.6307	154.5841	213.6323	219.9785	252.7571	301.9545	420.9326	442.1977	473.3092	615.627	718.0977	750.128	825.0495	869.4569	930.8068	956.0046	973.9744	981.8872	1008.6321	1053.6293	1105.7592	1135.4041	1141.5555	1166.3503	1191.1548	1201.6939	1233.2353	1238.9464	1345.3333	1364.9464	1381.3168	1393.206	1412.7651	1437.0039	1482.074	1486.4839	1494.0414	1499.2811	1509.4024	1544.3406	1818.4498	2966.7972	2994.892	3012.3036	3032.3776	3036.8418	3096.6111	3105.0675	3108.9322	3109.9499	3114.4724	3122.6735
CC(C)N=C1COCO1	CC(C)N=C1COCO1	
InChI=1S/C6H11NO2/c1-5(2)7-6-3-8-4-9-6/h5H,3-4H2,1-2H3	InChI=1S/C6H11NO2/c1-5(2)7-6-3-8-4-9-6/h5H,3-4H2,1-2H3
