25
gdb 100780	3.04939	0.90344	0.74359	1.4371	89.26	-0.2568	0.0757	0.3325	1634.235	0.226963	-389.483609	-389.472524	-389.47158	-389.520009	41.047	
C	-0.0169727077	 1.5546870282	-0.1088119793	-0.392753
C	-0.0069304193	 0.0288579278	 0.0260840179	-0.171604
C	 0.6953291984	-0.5003066548	 1.2914475157	 0.024815
C	-0.0822476291	-0.1522421909	 2.5688600268	-0.399442
C	 0.954155411	-2.0202825091	 1.1694312307	 0.10912
O	 1.6787148514	-2.3218813529	-0.0273557532	-0.431719
C	 1.6477959125	-2.613113365	 2.3810420415	-0.006252
C	 0.8718872588	-3.3489778674	 3.4474251389	-0.261295
C	 1.7627712155	-4.1105842458	 2.5025003484	-0.274554
H	 1.0022245099	 1.95857248	-0.102676264	 0.108891
H	-0.4854964555	 1.8583738033	-1.0504031205	 0.111315
H	-0.5696492954	 2.0416217978	 0.7009380017	 0.114068
H	-1.0398375913	-0.3472798513	 0.0134060551	 0.085813
H	 0.4895364057	-0.4095912496	-0.8441466315	 0.112094
H	 1.6863097973	-0.0192285707	 1.3528312736	 0.052221
H	-1.0640255031	-0.6412768003	 2.5722547132	 0.11055
H	 0.4489973027	-0.4681613555	 3.4697127683	 0.118636
H	-0.2517838054	 0.9254007715	 2.6451797644	 0.113366
H	-0.0097024459	-2.5301142935	 1.0324874691	 0.07664
H	 2.5831469486	-2.0140038715	 0.0975467921	 0.273285
H	 2.5038009435	-2.0359327827	 2.7289240386	 0.073603
H	 1.1833924687	-3.2367509042	 4.4802165468	 0.109983
H	-0.2015236021	-3.4385193168	 3.3177394505	 0.113465
H	 1.2960528982	-4.7066131798	 1.7257651764	 0.121622
H	 2.6865280026	-4.5278774768	 2.8876675187	 0.108132
58.2613	74.8952	86.969	147.0489	213.3399	224.8935	234.1556	254.543	281.3598	309.2912	337.6686	407.9174	424.3519	526.1071	535.0282	770.6634	778.2643	825.8176	841.0053	852.3158	914.3492	942.6107	963.324	983.7445	991.2459	1048.1741	1050.0201	1063.7653	1079.3465	1112.5991	1134.1867	1136.637	1174.432	1189.1044	1198.6173	1226.2125	1250.6523	1278.6546	1300.9132	1343.2868	1365.9781	1384.0044	1402.5768	1410.2671	1416.1949	1427.0352	1472.0638	1488.649	1495.7144	1500.9656	1506.2253	1510.0284	1512.4923	2960.5275	3010.1383	3018.482	3029.7154	3033.8701	3080.5669	3094.9813	3098.978	3106.8248	3109.739	3121.2448	3130.9128	3137.1872	3208.5477	3224.2873	3801.4329
CCC(C)C(O)C1CC1	CC[C@@H](C)[C@@H](O)C1CC1	
InChI=1S/C8H16O/c1-3-6(2)8(9)7-4-5-7/h6-9H,3-5H2,1-2H3	InChI=1S/C8H16O/c1-3-6(2)8(9)7-4-5-7/h6-9H,3-5H2,1-2H3/t6-,8-/m1/s1
