23
gdb 69321	2.75905	1.34762	1.26785	1.2661	84.81	-0.2237	0.0835	0.3072	1172.2534	0.204802	-388.296149	-388.286808	-388.285864	-388.329242	37.125	
C	 0.2396021527	 1.5859923466	 0.3039489701	-0.470016
C	 0.1928251374	 0.1054635871	 0.0602245406	 0.46107
C	-0.9731862361	-0.7557929393	 0.482922347	-0.386718
C	 0.4099639714	-0.9749239972	 1.0817036379	-0.127074
C	 1.3233366508	-2.0118125166	 0.4273797934	 0.28152
C	 2.7712510297	-1.7514734339	 0.8796692917	-0.429375
C	 0.9232257123	-3.4654134986	 0.701707699	-0.433519
C	 1.1578139428	-1.6452099929	-1.0736465948	-0.133519
O	 0.8522672697	-0.2559694954	-1.1367914964	-0.299496
H	 1.2749329518	 1.9400396633	 0.3406553463	 0.122392
H	-0.2747966238	 2.1265973083	-0.4975627495	 0.12709
H	-0.2479638715	 1.8350511138	 1.2502753624	 0.115686
H	-1.717091653	-0.2988902176	 1.1272258017	 0.10905
H	-1.3804761895	-1.4851072908	-0.2094107758	 0.112351
H	 0.5680303546	-0.7444626732	 2.1303196437	 0.079103
H	 2.8711364327	-1.8583467073	 1.9653198493	 0.109496
H	 3.4628961604	-2.4596163472	 0.4101421818	 0.108495
H	 3.0857891519	-0.7390092322	 0.6083347023	 0.124578
H	-0.1254630609	-3.645017918	 0.444908901	 0.113254
H	 1.537946965	-4.1614100057	 0.1189089117	 0.111135
H	 1.0566432645	-3.7161740305	 1.7594089148	 0.113354
H	 2.0671285881	-1.8164431328	-1.657920621	 0.103875
H	 0.3508741088	-2.2382275697	-1.5287051672	 0.08727
120.6035	186.5045	199.3107	218.2213	238.3736	264.315	318.1406	336.0513	380.2039	392.5713	429.9254	486.517	578.5127	624.9704	722.6629	778.3159	829.5369	878.9187	918.1799	933.414	944.5209	955.279	986.0169	988.2707	1034.0032	1040.351	1056.7096	1078.626	1096.5077	1124.1288	1206.5757	1208.1761	1234.8606	1255.6944	1277.0121	1306.1306	1382.753	1392.7292	1401.5364	1422.6069	1430.9396	1476.5925	1481.9977	1484.9661	1489.0518	1502.264	1505.0696	1507.9258	1529.1391	2991.2112	3023.9349	3029.0619	3035.9212	3074.7647	3087.9316	3094.3859	3099.4894	3101.7126	3106.7975	3118.2813	3128.56	3158.4162	3211.582
CC12CC1C(C)(C)CO2	C[C@]12C[C@H]1C(C)(C)CO2	
InChI=1S/C8H14O/c1-7(2)5-9-8(3)4-6(7)8/h6H,4-5H2,1-3H3	InChI=1S/C8H14O/c1-7(2)5-9-8(3)4-6(7)8/h6H,4-5H2,1-3H3/t6-,8-/m0/s1
