14
gdb 11666	3.13125	1.97521	1.53624	1.7079	58.12	-0.2606	-0.0162	0.2444	835.5489	0.105667	-419.608212	-419.600872	-419.599928	-419.640391	26.591	
O	 0.5230026757	 0.5351007962	-0.7961853623	-0.409171
C	-0.1485040442	 0.2099492934	 0.4082700569	-0.215001
C	-1.4391399855	-0.4971581604	 0.1037817709	 0.260723
C	-1.7512847801	-1.9417097552	-0.3662728302	-0.259511
C	-3.1147773696	-1.3097693343	-0.0028058563	-0.072438
O	-2.4611829961	-0.6800202467	 1.1795493582	-0.335465
C	-2.6584165085	-0.0221884938	-0.7386090597	 0.436325
O	-3.0342255618	 0.8791289875	-1.4144168282	-0.321845
H	-0.0153925646	 1.1809203538	-1.2673942185	 0.302911
H	 0.5251294465	-0.4352612973	 0.9801750896	 0.12888
H	-0.3683928038	 1.0946431955	 1.023883613	 0.118276
H	-1.5503876939	-2.2130967387	-1.4050569765	 0.123149
H	-1.4310958759	-2.6977354215	 0.3527515789	 0.123561
H	-4.0871309981	-1.7725033385	 0.1467280744	 0.119605
53.7264	136.8793	182.5733	243.8544	368.7664	415.1421	459.403	520.1761	651.7694	732.674	772.5171	803.9279	824.43	902.2758	926.178	979.4128	1033.6098	1039.3481	1076.5446	1110.1103	1160.5671	1196.3618	1204.5948	1252.4125	1347.8897	1382.8529	1420.7358	1476.7894	1500.1346	1924.4022	3003.1896	3070.8048	3086.367	3152.8598	3162.7144	3806.6104
OCC12CC(O1)C2=O	OC[C@@]12C[C@@H](O1)C2=O	
InChI=1S/C5H6O3/c6-2-5-1-3(8-5)4(5)7/h3,6H,1-2H2	InChI=1S/C5H6O3/c6-2-5-1-3(8-5)4(5)7/h3,6H,1-2H2/t3-,5-/m1/s1
