23
gdb 105394	2.01992	1.14747	0.92817	2.7496	86.44	-0.2437	-0.0199	0.2238	1418.7136	0.202889	-388.296678	-388.28591	-388.284966	-388.333682	38.721	
C	-0.8771402707	 1.2356997444	 0.6150729671	-0.385879
C	-0.1070769246	 0.0020692191	 0.1244210187	-0.257362
C	 0.8996526991	-0.5417407271	 1.1334604526	 0.349031
C	 2.0058330687	 0.4378567416	 1.5225395323	-0.350122
C	 2.8604401921	 0.8267623941	 0.3347954656	 0.165386
O	 3.0686871836	 1.9565291911	-0.0275394587	-0.244768
C	 0.3989506642	-1.4700987536	 2.2203200863	-0.344685
C	 1.281165288	-2.0141319421	 1.1215833128	-0.037617
C	 0.7681775269	-3.0199990601	 0.11334677	-0.417263
H	-0.2174770907	 2.0965802459	 0.7579720077	 0.131773
H	-1.6402560997	 1.527135685	-0.1129370419	 0.113787
H	-1.3795256631	 1.0332285703	 1.566981688	 0.116436
H	-0.8258916678	-0.7830555266	-0.1283655511	 0.096712
H	 0.4092167256	 0.2507888218	-0.8128262972	 0.104295
H	 1.6103551206	 1.3501923173	 1.9784690241	 0.119799
H	 2.6661591191	-0.0427110091	 2.2575149468	 0.112301
H	 3.2999966034	-0.0393897352	-0.2138250132	 0.072759
H	 0.801266791	-1.3721264348	 3.2233483359	 0.107483
H	-0.6525778374	-1.7403578609	 2.1917124294	 0.109606
H	 2.3101721764	-2.2051749381	 1.4198231131	 0.079529
H	-0.2883462102	-2.870333421	-0.1229939191	 0.119982
H	 1.3301259851	-2.9711193435	-0.8261803435	 0.118723
H	 0.8699022203	-4.0373329984	 0.5070606145	 0.120093
26.3824	63.1371	92.3126	147.4932	169.8867	210.3893	223.7208	272.4049	290.8481	351.5473	408.4479	450.5118	503.1441	528.1596	685.5445	773.5256	799.6225	812.4166	887.7844	899.7366	937.4181	975.9807	1021.5447	1029.3775	1039.6342	1061.8626	1080.7012	1108.7754	1132.3599	1143.2908	1193.2077	1205.3223	1252.0199	1292.5838	1319.6124	1337.0318	1379.1758	1407.634	1411.4545	1428.2339	1429.8433	1464.4205	1479.9102	1493.1084	1495.6377	1499.3437	1505.3101	1511.2486	1831.3422	2855.8096	3016.2458	3020.7596	3031.1256	3037.0402	3075.3932	3087.8521	3093.618	3104.8379	3106.208	3113.875	3121.0115	3125.903	3203.8706
CCC1(CC=O)CC1C	CC[C@@]1(CC=O)C[C@H]1C	
InChI=1S/C8H14O/c1-3-8(4-5-9)6-7(8)2/h5,7H,3-4,6H2,1-2H3	InChI=1S/C8H14O/c1-3-8(4-5-9)6-7(8)2/h5,7H,3-4,6H2,1-2H3/t7-,8-/m1/s1
