20
gdb 67587	2.26605	2.19395	1.51329	1.6081	81.45	-0.2147	0.0842	0.2988	973.084	0.171599	-365.970393	-365.962605	-365.96166	-366.002058	31.488	
C	 0.0522062921	 1.5361234676	 0.1104411618	-0.518199
C	 0.0080622796	 0.0434118232	-0.011053034	 0.309133
C	 1.0401485448	-0.8401531254	-0.6755078618	-0.143057
C	 0.3284131133	-1.9124652469	-1.4756093185	-0.178052
N	-0.8909418354	-2.1217864024	-0.6830174367	-0.166403
C	-0.5787118862	-1.9008916432	 0.7459500559	-0.125804
C	 0.7093773343	-1.0390369159	 0.7904353217	-0.147449
C	-1.283404112	-0.8511898402	-0.0425941582	 0.291436
C	-2.7006539933	-0.3730805633	-0.0761955312	-0.517317
H	 1.0792188577	 1.8855325694	 0.2585148308	 0.120545
H	-0.3364210906	 2.0267163817	-0.7903173172	 0.119855
H	-0.5409916846	 1.890616724	 0.9613509128	 0.11991
H	 2.0001623457	-0.4271227611	-0.9627573728	 0.08495
H	 0.0595297182	-1.5879670218	-2.4865960105	 0.102582
H	 0.8931221378	-2.8483176301	-1.5431489644	 0.103754
H	-0.9286757024	-2.6097197482	 1.4862991967	 0.087552
H	 1.4123937051	-0.9495641369	 1.6067191865	 0.0849
H	-2.9000488839	 0.3356545111	 0.7349457816	 0.118225
H	-2.9292702178	 0.1296503804	-1.0236407614	 0.119756
H	-3.3854500924	-1.2186849319	 0.0292805489	 0.13368
173.6967	190.4543	207.4709	212.2635	257.1322	354.805	424.4404	541.5644	591.9763	610.4979	719.5018	769.0209	775.0708	807.1336	827.0872	858.7103	888.4648	905.3151	952.8912	961.4781	993.7625	1010.7144	1016.7845	1075.0155	1088.5107	1105.6108	1117.6551	1147.5597	1194.8708	1212.8536	1221.7224	1245.9622	1269.0759	1315.9729	1395.3023	1409.7067	1426.6895	1449.6377	1481.7976	1489.1479	1492.4686	1498.8082	1501.4497	3018.9548	3026.6679	3043.2557	3074.9517	3085.3494	3087.645	3094.0768	3116.8833	3184.6051	3186.5611	3214.1613
CC12C3CN4C(C13)C24C	C[C@@]12[C@@H]3CN4[C@@H]([C@H]13)[C@@]24C	
InChI=1S/C8H11N/c1-7-4-3-9-6(5(4)7)8(7,9)2/h4-6H,3H2,1-2H3	InChI=1S/C8H11N/c1-7-4-3-9-6(5(4)7)8(7,9)2/h4-6H,3H2,1-2H3/t4-,5-,6+,7-,8+,9?/m1/s1
