18
gdb 68369	2.89052	1.6908	1.28804	4.6859	73.4	-0.2399	0.0536	0.2936	1013.396	0.14838	-439.095454	-439.087927	-439.086983	-439.127204	30.272	
C	-0.1321305422	 1.5049255946	 0.012658644	-0.470963
C	 0.0926109791	 0.0165138656	-0.04259716	 0.418218
C	 1.2566351531	-0.6227756171	-0.8504439073	-0.288809
C	 1.0777316219	-1.8105166172	 0.1229861838	 0.104716
C	 0.587068818	-0.7993576475	 1.1846397513	-0.28881
O	-0.0354446181	-2.6059030142	-0.3122683859	-0.278675
C	-1.1794371573	-1.9289462819	-0.6298848856	 0.461471
N	-2.2379224287	-2.4872542843	-1.0265729424	-0.562329
O	-1.1403036911	-0.5815896594	-0.5001388667	-0.281887
H	 0.7752354687	 2.0103808164	 0.3544529514	 0.118298
H	-0.3972757962	 1.888738454	-0.9767807611	 0.137987
H	-0.9482254041	 1.7432851684	 0.7009774615	 0.137971
H	 1.097951472	-0.8064071423	-1.9148040938	 0.123027
H	 2.1998417127	-0.0982780881	-0.6844133061	 0.113242
H	 1.8882341095	-2.5077052036	 0.329152209	 0.094902
H	 1.4183358369	-0.3043787422	 1.6908948333	 0.113244
H	-0.1591356231	-1.1379239355	 1.905969232	 0.123027
H	-2.0965894611	-3.4942224958	-1.0674511673	 0.22537
97.154	215.1946	235.6612	276.1844	388.4263	431.0121	453.9834	481.4444	484.5626	632.3463	664.4803	716.1354	807.5625	822.7995	827.7309	866.674	897.3507	920.5778	969.1926	978.8934	1006.4592	1041.5314	1060.5892	1083.9443	1139.8773	1180.1716	1205.1995	1224.6119	1236.8943	1266.0676	1294.4302	1331.9631	1400.0896	1417.8727	1459.7406	1480.1281	1490.2339	1494.0119	1770.6787	3044.9241	3071.3808	3077.8308	3119.6068	3124.0129	3130.9604	3138.7819	3142.1145	3529.7003
CC12CC(C1)OC(=N)O2	C[C@@]12C[C@@H](C1)O[C]([NH])O2	
InChI=1S/C6H9NO2/c1-6-2-4(3-6)8-5(7)9-6/h4,7H,2-3H2,1H3	InChI=1S/C6H9NO2/c1-6-2-4(3-6)8-5(7)9-6/h4,7H,2-3H2,1H3/t4-,6+
