14
gdb 86861	3.03126	1.25766	1.04186	2.93	61.8	-0.2926	-0.0221	0.2705	1109.9578	0.101065	-473.867456	-473.859547	-473.858602	-473.900444	28.607	
O	 0.3579493508	 0.9156039648	 0.7062948219	-0.429403
C	-0.1450067833	-0.1873645724	 0.0085120919	 0.009498
C	-1.6288557769	-0.0744003078	-0.3370849637	-0.271168
C	-1.7082950674	-0.9212250041	-1.630102073	-0.056957
O	-0.420698482	-0.7874824829	-2.2669363339	-0.207892
C	 0.4951936074	-0.319047541	-1.3728548136	 0.421669
O	 1.6161463064	-0.0307164585	-1.6678356111	-0.333855
C	-1.9861786384	-2.3414471216	-1.3646994464	 0.290601
N	-2.223520218	-3.4491778104	-1.140201145	-0.302816
H	 1.2751769028	 1.0291530044	 0.4197563056	 0.302802
H	 0.0454388178	-1.1315574286	 0.5476147521	 0.124492
H	-2.3034892697	-0.433622445	 0.4392462332	 0.150148
H	-1.8632412464	 0.9682774911	-0.5663364525	 0.14474
H	-2.4548680932	-0.5462786281	-2.3335181856	 0.158141
77.8324	98.3968	191.3678	252.3555	281.5326	359.2406	403.6214	464.0955	489.8037	583.3999	610.7677	718.4306	767.7005	815.9995	839.8409	970.1568	1017.2194	1033.9682	1062.3422	1133.6277	1180.7074	1186.1735	1262.5701	1273.4335	1321.9542	1365.9082	1383.1398	1422.1344	1489.8356	1893.8015	2364.4829	2961.494	3082.496	3098.9651	3151.9573	3751.5134
OC1CC(OC1=O)C#N	O[C@H]1C[C@@H](OC1=O)C#N	
InChI=1S/C5H5NO3/c6-2-3-1-4(7)5(8)9-3/h3-4,7H,1H2	InChI=1S/C5H5NO3/c6-2-3-1-4(7)5(8)9-3/h3-4,7H,1H2/t3-,4+/m1/s1
