19
gdb 50697	3.04579	1.26411	0.99277	1.6232	75.68	-0.2441	-0.0231	0.221	1191.6153	0.160105	-423.021421	-423.013343	-423.012399	-423.054679	30.715	
O	-0.1033561992	-0.0215516956	 0.0127524726	-0.249086
C	-0.0229882826	 1.1789251522	 0.0498203842	 0.156889
C	 1.2748852554	 1.9638017315	 0.0403178559	-0.085599
C	 1.4240016043	 2.7518843423	-1.2810190191	-0.242802
C	 2.5305209421	 3.7952487568	-1.1394899527	-0.073281
O	 2.1851114802	 4.7795294302	-0.1759132525	-0.256185
C	 1.9180117722	 4.2778917215	 1.1027927212	 0.09432
C	 0.4731502044	 4.0846555289	 1.4736525863	-0.311944
C	 1.3715843244	 2.8789742964	 1.2571387114	-0.074962
H	-0.9363891485	 1.8168983427	 0.0904048632	 0.074048
H	 2.0870042716	 1.2306267805	 0.0959596643	 0.094581
H	 1.6513715878	 2.0575974731	-2.0963742917	 0.116015
H	 0.4900856299	 3.2656798257	-1.5410020495	 0.110857
H	 3.4815189559	 3.3050352808	-0.8757175222	 0.093281
H	 2.6786511833	 4.340489832	-2.0755464347	 0.113173
H	 2.6118860851	 4.6486656022	 1.8538519627	 0.096948
H	 0.1493797435	 4.2987861408	 2.4860316487	 0.117261
H	-0.243273199	 4.3479934145	 0.7037116105	 0.123419
H	 1.6644738592	 2.3603428136	 2.1650327117	 0.103069
56.4333	91.9304	194.8428	264.8897	311.1772	347.6932	406.1834	454.7931	493.9751	582.0355	664.8269	753.0402	808.2386	832.0453	875.3162	921.4336	959.835	994.5899	1012.6838	1037.7329	1051.7685	1063.4495	1089.7308	1116.8501	1134.6278	1169.7881	1190.458	1224.2311	1241.701	1272.544	1301.7734	1339.3772	1359.2905	1369.6447	1398.4338	1416.7294	1426.7971	1475.4992	1488.3175	1504.3081	1831.7865	2864.0329	2978.4658	3032.7336	3050.6468	3086.7741	3091.9653	3125.5837	3138.7758	3150.6363	3227.694
O=CC1CCOC2CC12	O=C[C@H]1CCO[C@H]2C[C@@H]12	
InChI=1S/C7H10O2/c8-4-5-1-2-9-7-3-6(5)7/h4-7H,1-3H2	InChI=1S/C7H10O2/c8-4-5-1-2-9-7-3-6(5)7/h4-7H,1-3H2/t5-,6+,7+/m1/s1
