19
gdb 59484	2.84898	1.08947	1.00594	1.9346	72.08	-0.2597	0.0706	0.3303	1283.8606	0.156674	-460.109846	-460.100339	-460.099395	-460.144968	34.304	
C	 0.1256032299	 1.0337260711	-0.7128323347	-0.410894
C	 0.1136628763	-0.2374800454	 0.1337159147	 0.080692
O	 0.6714878534	-0.0261761515	 1.4291899848	-0.429841
C	-1.2977217016	-0.7784808797	 0.2781913283	 0.042684
O	-1.8967145348	-1.4059892997	-0.8643463052	-0.259136
C	-1.6622968263	-2.2038015848	 0.2950602395	 0.020607
C	-0.7144957124	-3.358119818	 0.1697683199	 0.049081
C	-0.6048365738	-4.1096646229	-1.0899151362	-0.175084
O	 0.4325646865	-3.2246174405	-0.6600139336	-0.221303
H	 1.1445440375	 1.4198226834	-0.8016734054	 0.125801
H	-0.2653202224	 0.8320741021	-1.7144523348	 0.137472
H	-0.5007065113	 1.8133334656	-0.2587420448	 0.101179
H	 0.7367987305	-0.9987488237	-0.336113636	 0.133533
H	 0.2560985425	 0.7576319516	 1.8059353607	 0.277203
H	-1.9757190937	-0.0959236104	 0.8021946692	 0.079221
H	-2.5684359928	-2.4771014147	 0.8429863639	 0.093586
H	-0.5373436068	-3.8865625834	 1.1078219221	 0.104155
H	-0.352709868	-5.1682555525	-1.0694734982	 0.11777
H	-1.1709869424	-3.7658034664	-1.9526119844	 0.133273
42.4644	73.3183	134.498	184.9093	232.5176	244.9252	271.3893	294.987	356.3023	437.8504	486.9941	557.7258	675.1815	738.2226	836.7394	867.3643	897.6033	910.4514	958.0672	988.5056	1015.3341	1065.4703	1093.3224	1100.8813	1119.1433	1143.7138	1166.718	1169.62	1190.7974	1270.2562	1279.8396	1298.5994	1340.3816	1397.8534	1404.7647	1418.0351	1431.6683	1487.5953	1492.7207	1502.954	1517.3507	3019.4919	3047.028	3072.0656	3092.2231	3093.9278	3105.0207	3125.18	3134.108	3190.5909	3795.3798
CC(O)C1OC1C1CO1	C[C@@H](O)[C@H]1O[C@H]1[C@H]1CO1	
InChI=1S/C6H10O3/c1-3(7)5-6(9-5)4-2-8-4/h3-7H,2H2,1H3	InChI=1S/C6H10O3/c1-3(7)5-6(9-5)4-2-8-4/h3-7H,2H2,1H3/t3-,4-,5-,6+/m1/s1
