23
gdb 112119	2.08323	1.4961	1.01332	0.986	87.79	-0.2408	0.023	0.2638	1291.0477	0.206115	-388.30601	-388.296605	-388.295661	-388.339976	36.093	
C	 0.0571321143	 1.6241287789	 0.1184072164	-0.393498
C	-0.0444840739	 0.1003488974	-0.0016155093	-0.166797
C	 0.6800019324	-0.4874167185	-1.2338094015	-0.0347
C	 2.134887013	-0.0776258962	-1.2903156508	-0.07363
C	 3.1171947369	-0.9213058759	-0.9820966142	-0.074712
C	 2.8466593661	-2.3315268226	-0.5409373255	-0.118224
O	 1.47799518	-2.5865597563	-0.2983696808	-0.262711
C	 0.6237624135	-2.0304542907	-1.297460186	 0.118411
C	-0.7522885512	-2.6492165483	-1.098321971	-0.413988
H	 1.0907811623	 1.9509506503	 0.2659333565	 0.119166
H	-0.3246389053	 2.1220475481	-0.7808702718	 0.109164
H	-0.5283709414	 1.9864224059	 0.9691145396	 0.111544
H	 0.3692046139	-0.3727989099	 0.8961555804	 0.109148
H	-1.1032944606	-0.1788510021	-0.0462050727	 0.093698
H	 0.1791021659	-0.1010056565	-2.1344013925	 0.068286
H	 2.365601097	 0.937807186	-1.5999783485	 0.089894
H	 4.1611263404	-0.6261817972	-1.0533772727	 0.088518
H	 3.244339766	-3.0380382133	-1.2945501991	 0.093938
H	 3.3712336896	-2.5498383371	 0.3976762746	 0.114337
H	 1.0016868923	-2.3268798828	-2.2910616166	 0.062429
H	-1.1149000287	-2.483537539	-0.0808688933	 0.12937
H	-1.4745756219	-2.2221620208	-1.8011510265	 0.111258
H	-0.7024088205	-3.7285055193	-1.2655766747	 0.119098
77.256	116.0449	194.5441	196.5732	234.8463	256.6117	276.9197	307.972	363.5606	475.7449	493.7029	512.0757	630.1148	719.498	743.6567	790.496	849.0227	873.9811	924.1445	942.2969	982.9759	1004.364	1022.8801	1036.212	1053.7252	1104.9217	1109.9625	1125.6187	1161.2532	1173.0769	1211.6082	1265.4509	1278.4485	1304.0904	1337.271	1369.6764	1374.0338	1382.2995	1403.2992	1407.6446	1411.4889	1418.93	1483.4738	1486.8612	1490.3594	1499.0872	1506.0727	1510.3744	1721.8989	2922.9379	2949.4473	2990.9364	3029.3049	3033.1059	3041.603	3045.8253	3071.8438	3096.1895	3108.6429	3116.5736	3126.6427	3150.517	3173.9055
CCC1C=CCOC1C	CC[C@H]1C=CCO[C@H]1C	
InChI=1S/C8H14O/c1-3-8-5-4-6-9-7(8)2/h4-5,7-8H,3,6H2,1-2H3	InChI=1S/C8H14O/c1-3-8-5-4-6-9-7(8)2/h4-5,7-8H,3,6H2,1-2H3/t7-,8-/m0/s1
