17
gdb 17366	4.22962	1.65704	1.33734	3.7545	69.77	-0.2275	0.0311	0.2586	940.6876	0.141867	-363.855233	-363.847439	-363.846495	-363.887893	28.377	
C	-0.0801856082	 1.4206371759	-0.1352224932	-0.487987
C	-0.0089514672	-0.093563397	-0.0128147081	 0.365334
O	 1.0253914854	-0.7265157517	-0.1215367015	-0.364154
N	-1.1975632043	-0.7073245653	 0.269158843	-0.070126
C	-2.6086111474	-0.302601528	 0.1010170609	-0.193325
C	-2.9725255155	-1.7882544206	-0.0438537744	-0.088094
C	-2.162476581	-2.4243203655	-1.1487459663	-0.278872
C	-1.4996922223	-2.1242505868	 0.1642940756	 0.005756
H	 0.9253815814	 1.8256154587	-0.021470524	 0.148085
H	-0.4564472102	 1.7006584125	-1.1258386032	 0.13836
H	-0.7457752872	 1.8642377581	 0.6108699944	 0.129723
H	-3.0186697725	 0.1650018233	 1.0028106757	 0.119071
H	-2.8115810705	 0.3386506841	-0.7647068327	 0.113486
H	-3.8442074881	-2.2539470111	 0.3927687396	 0.104944
H	-2.3826242525	-3.4722005747	-1.3273653044	 0.122305
H	-1.8897996191	-1.8593236919	-2.036124575	 0.116844
H	-1.0099513407	-2.85448909	 0.7942968034	 0.118649
77.9795	86.8919	123.9336	188.515	338.6806	375.9678	459.6551	544.8102	601.7183	642.9824	773.1858	790.7679	833.949	928.0278	953.5483	958.5873	988.6298	1038.8428	1049.1186	1057.1181	1075.5549	1104.2491	1109.1908	1153.5974	1191.0875	1210.198	1266.3519	1308.9761	1357.3317	1381.5106	1432.442	1471.9263	1477.9557	1484.1667	1510.6825	1772.6152	3024.747	3041.5794	3071.8277	3105.5001	3115.8954	3157.3713	3203.4582	3208.2286	3223.2752
CC(=O)N1CC2CC12	CC(=O)N1C[C@H]2C[C@@H]12	
InChI=1S/C6H9NO/c1-4(8)7-3-5-2-6(5)7/h5-6H,2-3H2,1H3	InChI=1S/C6H9NO/c1-4(8)7-3-5-2-6(5)7/h5-6H,2-3H2,1H3/t5-,6-/m1/s1
