16
gdb 62382	2.67569	1.84613	1.38515	3.162	73.18	-0.2483	-0.0088	0.2395	938.499	0.124872	-400.720542	-400.71315	-400.712206	-400.75198	29.52	
O	-0.0038026158	 1.3754904068	-0.0950414808	-0.478511
C	 0.0187209267	-0.0259795403	-0.0070597165	 0.334986
C	 0.9897749685	-0.5694281823	-0.9717245518	 0.21265
N	 1.8006122052	-0.8990598039	-1.7272190521	-0.340068
C	 0.0250637281	-0.6419999507	 1.4636943398	-0.133242
C	-1.4667707765	-0.1696960478	 1.5247697684	-0.23582
C	-1.4400988043	-0.6228326696	 0.0248107045	-0.103143
C	-1.1071469663	-2.1076472371	 0.1790181951	-0.089725
C	-0.1521207862	-2.1185123655	 1.1169048726	-0.087885
H	 0.9021642579	 1.7036002359	-0.0707095363	 0.29695
H	 0.7768935716	-0.3430628816	 2.1928882112	 0.076736
H	-2.1244453618	-0.7325304248	 2.1880968406	 0.104632
H	-1.5819322785	 0.9064735821	 1.6550029479	 0.123427
H	-2.1775162617	-0.3032683546	-0.7090254316	 0.086411
H	-1.5362992391	-2.9202015093	-0.3883055948	 0.116556
H	 0.4155698219	-2.9437680573	 1.5211139437	 0.116046
143.6069	159.2842	269.4357	312.7758	327.4225	450.3935	470.6858	494.377	534.1565	593.8414	651.8567	728.5152	767.2089	833.6296	842.5521	912.123	930.7254	940.0802	962.7528	978.3655	1014.6254	1076.4653	1101.6484	1124.3773	1136.4137	1156.0424	1214.1869	1230.3799	1248.7143	1261.1621	1320.0498	1359.4465	1489.6836	1618.0069	2346.6049	3086.8569	3130.7516	3142.7756	3158.5014	3230.7074	3255.9048	3805.5193
OC1(C#N)C2CC1C=C2	O[C@@]1(C#N)[C@H]2C[C@@H]1C=C2	
InChI=1S/C7H7NO/c8-4-7(9)5-1-2-6(7)3-5/h1-2,5-6,9H,3H2	InChI=1S/C7H7NO/c8-4-7(9)5-1-2-6(7)3-5/h1-2,5-6,9H,3H2/t5-,6+,7+
