18
gdb 36495	4.13307	1.05317	0.92222	5.4629	75.93	-0.2677	0.0392	0.3069	1259.9583	0.149185	-401.95798	-401.950072	-401.949127	-401.990918	29.939	
N	-0.0004405705	-1.1740552436	-0.2131197312	-0.307504
C	-0.0009581534	-0.0201897317	-0.157006043	 0.271389
C	-0.0097697953	 1.438186973	-0.0631643918	-0.355092
C	 1.4004971787	 2.0415803188	 0.0042572869	 0.119049
O	 2.0661663287	 1.7412704122	-1.2164604377	-0.262649
C	 3.0885964465	 2.7152191414	-1.4250717194	-0.094231
C	 2.5598835046	 3.9949326067	-0.8004680109	-0.055479
C	 1.1307979459	 4.339036678	-1.1261225261	-0.292822
C	 1.4499795689	 3.5566014687	 0.1254952727	-0.070999
H	-0.5391784128	 1.8505923684	-0.9275741305	 0.155696
H	-0.5685030848	 1.726137432	 0.8341302935	 0.15012
H	 1.9357680347	 1.5938517621	 0.8577653122	 0.088451
H	 4.027909495	 2.4122744653	-0.9369045954	 0.101224
H	 3.2613878501	 2.7733761568	-2.5042495497	 0.11634
H	 3.2594759058	 4.7739686088	-0.5232667874	 0.097059
H	 0.82199929	 5.3698632617	-0.9968021657	 0.118321
H	 0.6581638711	 3.8245846364	-1.9571123606	 0.125387
H	 1.3042726867	 4.006444735	 1.1002501941	 0.095741
67.5325	108.9073	173.0557	248.7264	329.88	370.9413	393.3818	450.4989	547.4054	656.074	721.5298	786.561	829.6562	842.8972	904.8093	930.7374	956.8911	982.9013	1001.7145	1041.2039	1074.6561	1078.134	1092.19	1098.7962	1120.2641	1134.0298	1194.9255	1226.7926	1250.9878	1297.8222	1330.5307	1345.9713	1360.1995	1396.5525	1406.9563	1451.7607	1480.3078	1517.1671	2366.0431	2968.8438	2987.5837	3053.0654	3077.3876	3099.0638	3133.0701	3182.4958	3191.1312	3222.4719
N#CCC1OCC2CC12	N#CC[C@H]1OC[C@H]2C[C@@H]12	
InChI=1S/C7H9NO/c8-2-1-7-6-3-5(6)4-9-7/h5-7H,1,3-4H2	InChI=1S/C7H9NO/c8-2-1-7-6-3-5(6)4-9-7/h5-7H,1,3-4H2/t5-,6-,7-/m1/s1
