23
gdb 60434	4.42657	0.55009	0.51737	3.9088	83.51	-0.2403	-0.0065	0.2338	2190.8074	0.201559	-425.457727	-425.446086	-425.445141	-425.496545	40.589	
C	 0.0232444398	 1.5769820955	-0.0288911653	-0.402596
C	 0.0339302165	 0.0510857186	 0.0673282415	 0.137565
O	 0.6778654834	-0.384087118	 1.2641092848	-0.426472
C	-1.3706898572	-0.5536715445	-0.0664160831	-0.201642
C	-1.3707534841	-2.0847836068	-0.0709231695	-0.166749
C	-2.7766404319	-2.6814242925	-0.1066348733	-0.306584
C	-2.8028838913	-4.2035581464	-0.1903427851	 0.378276
C	-4.171122674	-4.8570308537	-0.0819990478	-0.472528
O	-1.7953904366	-4.856602536	-0.336239718	-0.288622
H	 1.0350558609	 1.9723047633	 0.0947510359	 0.124158
H	-0.3662771767	 1.91219823	-0.9956342416	 0.114798
H	-0.6119725312	 2.0114619323	 0.7538561855	 0.103669
H	 0.665172753	-0.3516258376	-0.7352759747	 0.090125
H	 0.1945843348	-0.005059131	 2.0071316829	 0.273918
H	-1.9909213508	-0.1784942377	 0.7629933365	 0.077493
H	-1.8354745378	-0.1732897955	-0.9863329741	 0.090888
H	-0.8046179857	-2.4554384575	-0.9326315683	 0.11187
H	-0.8365850057	-2.4483617663	 0.8117894395	 0.121306
H	-3.3629386704	-2.3737347064	 0.7711804239	 0.110943
H	-3.3443493435	-2.2986123242	-0.9686621168	 0.116821
H	-4.8739487035	-4.414341942	-0.7961736015	 0.133
H	-4.0854778267	-5.9296023577	-0.2601690942	 0.141822
H	-4.5870760413	-4.6878433958	 0.9181654029	 0.13854
22.8644	51.9571	88.3771	93.4647	118.5427	135.4874	219.6235	250.1368	252.8284	296.3829	378.2721	408.0152	474.3728	478.9315	502.2255	599.2523	725.1857	794.7256	822.4921	862.9583	930.5906	939.9636	952.0348	1007.7816	1044.9104	1065.5514	1090.8026	1122.3106	1154.0023	1173.9275	1178.1124	1262.4289	1277.7584	1312.0343	1335.9508	1344.9458	1378.3615	1387.8796	1396.9575	1404.84	1421.119	1450.717	1465.4761	1474.5278	1477.1915	1492.8014	1496.6496	1501.3419	1812.9044	2985.6454	3001.2737	3020.8934	3028.3512	3028.9764	3035.9435	3038.7095	3054.2443	3092.2194	3096.0658	3100.2651	3118.4624	3150.9588	3792.1838
CC(O)CCCC(C)=O	C[C@@H](O)CCCC(=O)C	
InChI=1S/C7H14O2/c1-6(8)4-3-5-7(2)9/h6,8H,3-5H2,1-2H3	InChI=1S/C7H14O2/c1-6(8)4-3-5-7(2)9/h6,8H,3-5H2,1-2H3/t6-/m1/s1
