20
gdb 82069	2.69075	1.3263	1.01144	3.5476	79.45	-0.2346	-0.0144	0.2203	1231.9928	0.169255	-403.124242	-403.114967	-403.114023	-403.158787	34.145	
C	-0.2089530509	 1.5321967913	-0.0645931291	-0.412847
C	 0.0437235183	 0.0362647521	-0.0171488138	 0.062158
C	 0.68642398	-0.7029895784	-1.2508019971	-0.142968
C	 1.7559053691	-1.1745344831	-0.2744229366	-0.020988
C	 2.4254112545	-0.0265654812	 0.358381878	-0.263388
N	 1.1256269709	-0.4579170577	 0.909723814	-0.137645
C	-0.2058723245	-1.7777320885	-1.8327128277	 0.363061
C	-1.2540258452	-1.3076392209	-2.8267232213	-0.482824
O	-0.0995297904	-2.9408260863	-1.5140734827	-0.299164
H	 0.667710046	 2.0943596255	-0.3987477614	 0.119983
H	-1.0315521816	 1.7604930493	-0.7510242547	 0.120235
H	-0.4882398247	 1.8956219854	 0.9297267124	 0.13551
H	-0.8734586713	-0.4772352269	 0.2875120008	 0.099168
H	 1.035338542	-0.0390894786	-2.0507073148	 0.08367
H	 2.0960464819	-2.2000091824	-0.1995709438	 0.117093
H	 3.2442789937	-0.2328848827	 1.040539964	 0.126057
H	 2.5134719976	 0.9182304524	-0.1726561956	 0.108334
H	-0.7639435569	-0.9598662479	-3.7437713944	 0.142058
H	-1.9311299054	-2.1275324533	-3.0686376754	 0.144717
H	-1.8210903331	-0.4585183081	-2.4293476708	 0.137779
45.6073	117.2575	128.7212	157.9064	214.7176	259.3351	278.2554	346.6565	392.5029	512.9619	573.0711	596.6816	698.1455	765.4014	777.7478	832.2784	872.3094	896.0889	947.5999	998.6675	1006.3291	1062.4793	1077.506	1095.2123	1102.6679	1114.9104	1119.513	1152.549	1190.3253	1214.7688	1230.7358	1291.8681	1314.6686	1368.3147	1380.2853	1395.8979	1407.9853	1462.3836	1475.5839	1486.0614	1493.7209	1508.704	1803.3497	3030.7351	3035.2815	3037.6261	3054.4831	3094.5728	3102.2023	3108.5993	3116.0993	3152.4868	3192.4318	3202.1706
CC1C(C2CN12)C(C)=O	C[C@H]1[C@@H]([C@H]2CN12)C(=O)C	
InChI=1S/C7H11NO/c1-4-7(5(2)9)6-3-8(4)6/h4,6-7H,3H2,1-2H3	InChI=1S/C7H11NO/c1-4-7(5(2)9)6-3-8(4)6/h4,6-7H,3H2,1-2H3/t4-,6+,7+,8?/m0/s1
