19
gdb 117866	3.54014	0.62886	0.55102	1.6377	96.	-0.2423	-0.0181	0.2243	2003.6546	0.155022	-385.830704	-385.819916	-385.818972	-385.867719	37.895	
C	-0.0805935124	 1.5227680152	-0.0423060953	-0.385047
C	-0.0212820147	 0.0101570298	 0.0860453597	-0.03279
O	-1.3446485228	-0.4896606882	-0.0107059833	-0.253551
C	-1.4421808888	-1.9085080662	 0.0120200542	-0.091038
C	-1.4108122855	-2.4654319767	 1.4459928625	-0.393158
C	-2.6773998239	-2.2870752103	-0.6726120156	 0.421987
C	-3.6922703878	-2.6371201038	-1.2299957381	-0.232164
C	-4.8387380783	-3.0224331738	-1.8535757258	 0.293991
C	-5.8544849194	-3.3670774463	-2.408089358	-0.565239
H	 0.9250040223	 1.9490654343	 0.0221116497	 0.115294
H	-0.5214818204	 1.8082723265	-1.0012433813	 0.131359
H	-0.6917413829	 1.9512355374	 0.7568858141	 0.129731
H	 0.6031183314	-0.4229902235	-0.7130985781	 0.09038
H	 0.4388402898	-0.27196407	 1.0460396477	 0.089743
H	-0.5970407823	-2.3386223905	-0.552977243	 0.099344
H	-2.2379882674	-2.0468282351	 2.0239764644	 0.13844
H	-1.5034436227	-3.5548065087	 1.4342981825	 0.129949
H	-0.4681516764	-2.2053650759	 1.9350024046	 0.121258
H	-6.7497363676	-3.6667695441	-2.893625861	 0.191511
41.7728	56.9942	85.117	121.6633	193.5926	225.9192	241.0978	249.3522	306.7653	363.0176	388.3519	495.0292	513.0239	541.1026	556.1948	594.3783	608.8747	737.8817	821.7259	849.1849	944.6064	1009.8616	1069.0695	1094.6601	1126.4037	1149.5786	1186.3626	1192.1512	1296.3955	1337.7875	1353.4599	1398.6549	1402.6643	1436.5464	1482.7823	1488.2914	1490.5753	1500.0396	1528.1364	2182.8572	2366.2289	2951.4212	2964.2004	2994.3956	3046.473	3049.4198	3120.6789	3123.8623	3125.6284	3136.5512	3505.7951
CCOC(C)C#CC#C	CCO[C@@H](C)C#CC#C	
InChI=1S/C8H10O/c1-4-6-7-8(3)9-5-2/h1,8H,5H2,2-3H3	InChI=1S/C8H10O/c1-4-6-7-8(3)9-5-2/h1,8H,5H2,2-3H3/t8-/m0/s1
