21
gdb 73086	2.48773	1.70216	1.37829	1.3567	82.83	-0.2371	0.0208	0.2579	1050.6136	0.184144	-387.099221	-387.09115	-387.090206	-387.131449	32.324	
C	-0.0986900253	 1.5427976263	 0.0956279181	-0.442996
C	 0.0154133943	 0.0256266337	 0.018493051	 0.42154
C	-1.3065380101	-0.6345396344	-0.3504819279	-0.24229
C	-1.2490396433	-2.1666536804	-0.2797582229	-0.268665
C	-0.6703746094	-2.6330681775	 1.0303876731	-0.063066
C	 0.2268682523	-1.9187030816	 1.7116528444	-0.06513
C	 0.7881849578	-0.6241849236	 1.208957864	-0.147167
C	 1.9355238017	-0.767109483	 0.1691515502	-0.078696
O	 1.0770885702	-0.3558866802	-0.9087401919	-0.325191
H	 0.8680372372	 1.9934376786	 0.3394026364	 0.115547
H	-0.4286200977	 1.9483828063	-0.8663429654	 0.121602
H	-0.8219543542	 1.8418877301	 0.8620315499	 0.1139
H	-2.0759364408	-0.2690966557	 0.3409111169	 0.098583
H	-1.5925734614	-0.3071728009	-1.3568586298	 0.101784
H	-2.2510593159	-2.5846138072	-0.4248376352	 0.096886
H	-0.6379258396	-2.5420847643	-1.1113323952	 0.126027
H	-1.0049262066	-3.5910777541	 1.4200151994	 0.086108
H	 0.6228159485	-2.2942113866	 2.6523917522	 0.084221
H	 1.0125331092	 0.0606030915	 2.0308018196	 0.071217
H	 2.7766669985	-0.0753822454	 0.3137571507	 0.093265
H	 2.3222794847	-1.7814116916	 0.0242121124	 0.10252
93.9114	173.7856	230.4168	259.5738	307.6832	333.5394	366.598	466.6502	503.4635	540.9607	646.1251	695.4559	745.4118	806.4333	840.5372	887.6027	888.4372	948.9436	952.7237	986.8986	1004.2597	1012.5569	1043.5962	1068.2513	1089.1069	1117.4361	1151.2381	1168.7599	1181.0499	1220.7791	1243.5426	1261.4564	1286.9732	1335.3456	1353.3467	1363.8737	1392.5489	1402.814	1419.3636	1465.8343	1481.083	1485.5442	1491.6292	1522.4748	1712.8675	3002.624	3021.9965	3025.6327	3032.9831	3062.5137	3063.412	3072.7757	3073.3455	3104.1434	3108.6771	3143.1769	3167.6914
CC12CCC=CC1CO2	C[C@]12CCC=C[C@H]1CO2	
InChI=1S/C8H12O/c1-8-5-3-2-4-7(8)6-9-8/h2,4,7H,3,5-6H2,1H3	InChI=1S/C8H12O/c1-8-5-3-2-4-7(8)6-9-8/h2,4,7H,3,5-6H2,1H3/t7-,8-/m0/s1
