12
gdb 23783	5.99387	1.57392	1.25626	2.4035	58.73	-0.2482	-0.0823	0.1659	878.1	0.083467	-418.821894	-418.815334	-418.81439	-418.853013	23.519	
C	-0.0125259642	 1.4768613521	 0.0207802517	-0.453555
C	-0.0083393979	-0.0224191123	 0.0012405673	 0.393132
N	 0.1399608771	-0.6332663717	-1.1939116401	-0.249596
C	 0.1389103669	-1.9499868505	-1.173278082	-0.116947
C	-0.0112094543	-2.6128355419	 0.0489719758	 0.333871
F	-0.0142037892	-3.9347240416	 0.0849614747	-0.051433
N	-0.1526865035	-1.9846420767	 1.1876832584	-0.223582
N	-0.152133297	-0.6493759801	 1.1703261456	-0.224851
H	 0.9249820062	 1.8628464477	-0.3912103228	 0.147755
H	-0.8215353776	 1.8608355906	-0.6082586205	 0.147752
H	-0.139667402	 1.8387072846	 1.0408493264	 0.150322
H	 0.2546673555	-2.4972212601	-2.1054262245	 0.147133
91.1152	122.2793	317.912	355.7372	425.2832	446.2374	520.7629	544.6646	652.9685	773.0289	797.4983	880.8386	958.1705	1006.9439	1065.1531	1069.9379	1151.7705	1288.6524	1302.8052	1371.1382	1409.7061	1454.8011	1478.6994	1482.7203	1570.6873	1608.8502	3051.1834	3109.2381	3161.8716	3167.3215
CC1=NC=C(F)N=N1	Cc1ncc(F)nn1	
InChI=1S/C4H4FN3/c1-3-6-2-4(5)8-7-3/h2H,1H3	InChI=1S/C4H4FN3/c1-3-6-2-4(5)8-7-3/h2H,1H3
