22
gdb 78606	3.06324	1.38694	1.14145	1.1319	87.09	-0.206	0.0915	0.2975	1187.7789	0.19294	-367.125574	-367.116706	-367.115762	-367.158311	35.017	
C	-0.1551185168	 1.6451089713	-0.1281970008	-0.420129
C	-0.0638323918	 0.1274244338	-0.0587845255	-0.016427
C	 1.1708963962	-0.5836422308	-0.6539744709	-0.109438
C	 2.0521925222	-0.2980688956	 0.598875527	-0.013602
C	 0.6036993839	-0.5334176429	 1.1684791251	-0.125698
C	 1.0357713042	-1.7999487848	 0.3209791864	 0.377892
C	 0.306785256	-3.094741991	 0.1143421796	-0.533
N	 2.4941131717	-1.7213536042	 0.6757737257	-0.153
C	 2.8554881587	-2.2004592826	 2.0060937565	-0.331605
H	 0.7884071189	 2.1219031581	 0.1575918915	 0.113705
H	-0.4024830419	 1.9794465233	-1.1420343346	 0.114606
H	-0.9352100666	 2.02371347	 0.5417548	 0.113524
H	-1.0204929172	-0.3280446948	-0.3438596244	 0.061609
H	 1.5281213728	-0.6354795928	-1.6834202598	 0.071979
H	 2.7296147869	 0.5378711509	 0.7779246276	 0.075639
H	 0.2765093468	-0.5021648773	 2.2087129517	 0.069358
H	-0.7245825514	-2.9132682969	-0.204899336	 0.126346
H	 0.8044365875	-3.6954447851	-0.6538724014	 0.131102
H	 0.2725908833	-3.682836598	 1.0378992909	 0.123358
H	 2.8990056736	-3.2947306076	 1.9991866183	 0.116101
H	 3.8556160634	-1.8330060861	 2.2600616497	 0.116195
H	 2.1649586396	-1.890581167	 2.8092859836	 0.091484
168.1782	199.507	201.327	212.0831	217.5983	222.2885	264.985	333.7107	386.0636	522.9872	578.3067	641.5069	722.9891	746.6915	801.6258	821.8677	823.1648	853.1642	880.6727	940.1279	983.4585	1031.9472	1054.5214	1065.9887	1080.7842	1118.3859	1121.221	1139.8655	1153.1748	1161.9829	1167.5753	1186.1917	1197.3298	1248.7059	1267.7718	1284.9206	1360.9042	1398.6506	1411.5869	1414.0036	1444.7159	1479.8398	1491.295	1494.2485	1494.7809	1498.4765	1499.5321	2959.0565	3022.6875	3027.2473	3032.0003	3058.8777	3088.3422	3093.4415	3094.6017	3098.2314	3100.4617	3103.7378	3106.9184	3114.4537
CC1C2C3C1C2(C)N3C	C[C@H]1[C@H]2[C@H]3[C@@H]1[C@]2(C)N3C	
InChI=1S/C8H13N/c1-4-5-7-6(4)8(5,2)9(7)3/h4-7H,1-3H3	InChI=1S/C8H13N/c1-4-5-7-6(4)8(5,2)9(7)3/h4-7H,1-3H3/t4-,5-,6+,7-,8+
