16
gdb 79284	2.25346	2.17905	1.61899	3.0951	66.81	-0.2412	-0.0209	0.2203	877.3705	0.126551	-437.882524	-437.875778	-437.874834	-437.913483	27.122	
O	-0.0559571238	 1.4348039036	 0.0264272485	-0.434804
C	 0.0301309923	 0.0268236646	-0.0072577295	 0.113796
C	-1.361676725	-0.5613062971	-0.2475603081	-0.03304
C	-1.5957576939	-0.6027293666	-1.727891048	-0.161328
N	-1.2401507083	-1.8335861918	-0.964836442	-0.127751
C	 0.2341299798	-2.0240839875	-1.173123356	-0.175678
C	 0.6887483195	-0.5615631642	-1.2808064993	-0.240258
C	-0.3247034914	-0.0769254276	-2.3422367689	 0.46661
O	-0.149323395	 0.5161823905	-3.3685289658	-0.332731
H	 0.8345309166	 1.7948506	 0.0879085025	 0.291944
H	 0.4855887465	-0.3695688162	 0.9120226796	 0.078125
H	-2.1675993412	-0.4498427417	 0.4670768928	 0.110283
H	-2.5655414727	-0.5469526713	-2.2023842316	 0.115289
H	 0.6521774138	-2.5589694843	-0.3154339657	 0.115808
H	 0.4091459531	-2.6108967462	-2.078981131	 0.12548
H	 1.7354620994	-0.3402868244	-1.4724683776	 0.088252
137.2262	212.6462	280.534	336.1076	403.3936	457.4435	535.9822	614.9101	680.8878	725.3321	779.3088	793.4253	857.2727	862.9359	911.4154	929.9397	951.826	991.937	1007.3719	1045.8365	1068.2969	1126.242	1145.473	1178.2354	1195.1557	1200.7037	1208.8999	1243.465	1283.6306	1301.6033	1337.2462	1372.4047	1422.3046	1507.6979	1881.8358	2996.2106	3057.5791	3108.3014	3160.6808	3195.8628	3221.4056	3820.4819
OC1C2C3N2CC1C3=O	O[C@H]1[C@H]2[C@@H]3N2C[C@H]1C3=O	
InChI=1S/C6H7NO2/c8-5-2-1-7-3(5)4(7)6(2)9/h2-5,8H,1H2	InChI=1S/C6H7NO2/c8-5-2-1-7-3(5)4(7)6(2)9/h2-5,8H,1H2/t2-,3-,4+,5-,7?/m1/s1
