18
gdb 65667	2.99618	1.46259	1.29249	1.5581	72.77	-0.2395	0.0255	0.2649	1043.8582	0.146484	-439.009837	-439.001653	-439.000709	-439.042496	31.443	
C	-0.2349833198	 1.6155624223	 0.2676285794	-0.492745
C	 0.0849954451	 0.2607806297	-0.3385439671	 0.483891
O	-0.7433073334	 0.058237936	-1.4897837507	-0.250195
C	-1.9973631665	-0.3753498819	-1.3174789156	 0.120343
N	-2.531595639	-0.5990035666	-0.19077925	-0.474174
C	 1.5339538712	-0.2239127308	-0.6284599373	-0.006839
C	 1.7713565185	-0.4223584379	 0.8871940987	-0.247982
C	 0.3881225033	-1.0097407744	 0.5138257311	 0.009055
O	 1.0257163932	-1.6126711421	-0.6819486409	-0.316812
H	-0.1494186707	 2.388754626	-0.5019601051	 0.127576
H	-1.2612853715	 1.6112403592	 0.6413529536	 0.154802
H	 0.4303495445	 1.8771547785	 1.090947832	 0.123466
H	-2.4652064066	-0.4933955538	-2.2998826722	 0.110759
H	-3.4871794343	-0.9252245154	-0.3160047828	 0.229224
H	 2.2199817197	 0.0962165866	-1.4131680641	 0.096731
H	 2.5158692861	-1.1861398393	 1.1079030809	 0.117208
H	 1.8419298832	 0.4398433652	 1.5509047928	 0.101289
H	-0.2988532429	-1.6223268714	 1.0911263774	 0.114404
85.5919	172.237	178.7946	207.5988	243.5351	332.5581	400.3252	426.3808	516.6857	621.8129	657.1	724.2385	777.8406	806.3702	827.5711	879.8662	891.1396	900.8954	937.4385	1015.7711	1025.5821	1044.3459	1086.9421	1107.1136	1124.0982	1153.4002	1170.5566	1174.0213	1209.2667	1214.6927	1267.4553	1315.0759	1322.1802	1406.9344	1409.7651	1481.7879	1490.1263	1508.1046	1712.9399	3055.2258	3084.3491	3086.4279	3120.0145	3126.559	3147.2076	3165.5996	3167.9623	3517.4657
CC1(OC=N)C2CC1O2	C[C@@]1(O[CH][NH])[C@H]2C[C@@H]1O2	
InChI=1S/C6H9NO2/c1-6(8-3-7)4-2-5(6)9-4/h3-5,7H,2H2,1H3	InChI=1S/C6H9NO2/c1-6(8-3-7)4-2-5(6)9-4/h3-5,7H,2H2,1H3/t4-,5+,6-
