21
gdb 107058	3.85078	1.09043	0.97303	1.2098	78.32	-0.229	0.066	0.295	1290.6144	0.182164	-424.216036	-424.206921	-424.205977	-424.249743	34.825	
C	-0.2544400557	 1.5010654262	-0.1506730417	-0.375217
C	 0.1677834665	 0.0379587883	 0.0307658788	-0.26123
C	 0.7879891925	-0.54834131	-1.2094259263	 0.468018
C	-0.032565228	-1.117009117	-2.3386848996	-0.351825
C	 0.8988801994	-2.0123024805	-1.5317886538	-0.135147
C	 2.2830356209	-2.2152623918	-2.1045537314	 0.081594
O	 2.2511733681	-3.0193457534	-3.2750694894	-0.428301
C	 2.7522541415	-0.7608871393	-2.3898509273	-0.134578
O	 1.9964060512	 0.1037499944	-1.5562024502	-0.299784
H	 0.6050942466	 2.1170172108	-0.4277477486	 0.135179
H	-1.0051434445	 1.5976081925	-0.9418587444	 0.115236
H	-0.6815439065	 1.9029965869	 0.7729711919	 0.106887
H	 0.8902452353	-0.0409749903	 0.8525256121	 0.101432
H	-0.6985883425	-0.5735547892	 0.3077260205	 0.096543
H	-1.096211611	-1.2408119393	-2.1653422501	 0.111339
H	 0.2285088083	-0.8903275346	-3.3660304145	 0.12404
H	 0.4821083866	-2.778839484	-0.8893084461	 0.08787
H	 2.9204962175	-2.6840354454	-1.3404979883	 0.071643
H	 3.1588877377	-3.2052342458	-3.5358983325	 0.283326
H	 3.8129549787	-0.5920456169	-2.1782844386	 0.101549
H	 2.5746461375	-0.5513976214	-3.4546282205	 0.101425
81.8677	110.6732	168.7657	191.0169	243.7252	263.9555	313.6837	372.2591	401.7252	433.9387	547.9753	638.0109	644.7877	711.1677	783.8099	830.21	875.5916	926.352	943.5464	971.8331	987.7239	1019.2322	1025.0019	1043.6467	1079.9756	1082.3288	1109.6266	1121.4313	1143.6243	1227.5247	1233.2501	1240.6533	1270.537	1308.9677	1340.0613	1359.4771	1367.5793	1407.135	1420.8739	1435.0195	1475.1598	1488.7446	1496.9176	1510.2604	1526.5259	2988.9725	3001.9222	3028.8133	3039.9532	3067.993	3073.8784	3106.6973	3122.9373	3136.4056	3179.0626	3222.9083	3814.9914
CCC12CC1C(O)CO2	CC[C@]12C[C@H]1[C@@H](O)CO2	
InChI=1S/C7H12O2/c1-2-7-3-5(7)6(8)4-9-7/h5-6,8H,2-4H2,1H3	InChI=1S/C7H12O2/c1-2-7-3-5(7)6(8)4-9-7/h5-6,8H,2-4H2,1H3/t5-,6-,7-/m0/s1
