18
gdb 119332	5.04676	1.0099	0.98372	1.1664	75.48	-0.2149	0.0616	0.2765	1264.9931	0.146557	-401.80565	-401.797681	-401.796737	-401.838844	29.77	
C	 0.5882778305	 1.4382348191	 0.1241729041	-0.218785
O	 0.8672527676	 0.0586242987	 0.1189156437	-0.23723
C	-0.033162402	-0.6818527071	 0.9171743883	-0.224231
C	 0.3679747103	-2.1134312821	 0.9037832113	 0.369284
C	 1.5533375446	-2.9005870812	 1.5247814584	-0.166463
C	 1.2887956309	-4.0353941461	 0.525995318	-0.104986
C	 0.5709680191	-3.9947813429	 1.8486873505	-0.009633
N	-0.6045229027	-3.2086033867	 1.2646154454	-0.233015
C	 0.1146184261	-3.2163294946	-0.0629019776	-0.10054
H	 0.6496604494	 1.8652099151	 1.1381056685	 0.10382
H	 1.3336377112	 1.9247267421	-0.5095409451	 0.127603
H	-0.4150636107	 1.6547181239	-0.2762078515	 0.10471
H	-0.03646634	-0.2983919875	 1.9527581377	 0.092746
H	-1.0668388666	-0.6018300168	 0.5394978256	 0.101184
H	 2.4805534057	-2.6048791837	 1.9935045938	 0.100204
H	 1.9803510064	-4.7535145505	 0.1105699478	 0.098555
H	 0.494769221	-4.6999756613	 2.6665190806	 0.100055
H	-0.415586141	-3.2366173684	-1.0076810195	 0.096723
72.3279	91.8444	116.6787	227.3169	294.004	337.7085	369.7448	648.9393	697.4086	742.2466	765.497	792.925	821.0136	855.0532	883.1034	887.3735	944.8388	977.9895	995.1976	1000.5314	1006.3056	1015.2175	1037.7596	1066.2764	1142.6811	1156.8822	1183.8036	1187.4919	1222.7541	1225.0257	1256.5739	1301.4635	1342.91	1381.3508	1454.2066	1481.7121	1485.3917	1498.6398	1517.6773	2946.3544	2969.272	2980.8233	3011.5547	3114.8987	3181.9985	3190.5291	3218.9473	3230.6608
COCC12C3C4C3N1C24	COC[C@@]12[C@@H]3[C@H]4[C@@H]3N1[C@@H]24	
InChI=1S/C7H9NO/c1-9-2-7-4-3-5(4)8(7)6(3)7/h3-6H,2H2,1H3	InChI=1S/C7H9NO/c1-9-2-7-4-3-5(4)8(7)6(3)7/h3-6H,2H2,1H3/t3-,4+,5-,6+,7-,8?/m0/s1
