18
gdb 20172	3.39801	2.62744	1.97475	0.408	75.3	-0.2217	0.0255	0.2472	752.1672	0.15752	-310.655182	-310.649286	-310.648342	-310.684689	25.233	
C	 0.0045945413	 1.5633452094	-0.0050237296	-0.241971
C	 1.5304153087	 1.5758993628	-0.0831667503	-0.064694
C	 2.1417400928	 0.763285824	 1.0594871446	-0.058308
C	 1.50670447	 0.5868849223	 2.3910445014	-0.054449
C	 0.3512273277	-0.0623184294	 2.5507380558	-0.076166
C	-0.4273180067	-0.6175625693	 1.3819971406	-0.262199
C	 0.0395007015	-0.0055335079	 0.0588065666	-0.024147
C	 1.5722545746	 0.0556076319	-0.1359752521	-0.087138
H	-0.4510550472	 2.077531948	 0.8472193659	 0.096113
H	-0.4599725961	 1.9228526042	-0.9263821069	 0.098213
H	 2.1335246284	 2.2904678083	-0.6313791377	 0.080216
H	 3.2264013057	 0.827739685	 1.0684633702	 0.082746
H	 2.0275774728	 0.9969800203	 3.2524512505	 0.08036
H	-0.0684645481	-0.1953338162	 3.5444134988	 0.082014
H	-0.3411942753	-1.7146024356	 1.3536806744	 0.103349
H	-1.4973551583	-0.4108797829	 1.5212090194	 0.101064
H	-0.4792964408	-0.4615446629	-0.7872825089	 0.067324
H	 2.1615993589	-0.601833302	-0.7636401728	 0.077671
215.153	306.4384	343.9584	490.835	514.885	554.9947	675.809	738.0605	773.2221	783.1919	818.1138	852.7472	893.6092	912.0705	957.2369	966.9359	984.4864	1003.2085	1018.6112	1032.5277	1066.9572	1070.2299	1082.7461	1137.4205	1151.5907	1183.2951	1209.2108	1252.4379	1263.621	1300.6898	1310.5106	1333.27	1373.6184	1412.6096	1432.2166	1470.0002	1485.4696	1708.0485	2992.1644	3025.3701	3047.7394	3076.159	3104.3842	3141.608	3150.3106	3170.0552	3171.0079	3184.4276
C1C2C3C=CCC1C23	C1[C@H]2[C@H]3C=CC[C@@H]1[C@@H]23	
InChI=1S/C8H10/c1-2-5-4-7-6(3-1)8(5)7/h1,3,5-8H,2,4H2	InChI=1S/C8H10/c1-2-5-4-7-6(3-1)8(5)7/h1,3,5-8H,2,4H2/t5-,6+,7-,8+/m0/s1
