14
gdb 125120	3.29516	1.3003	0.93785	6.363	70.92	-0.2396	-0.0235	0.2161	1151.4426	0.101531	-432.905846	-432.897239	-432.896295	-432.940652	30.089	
C	 0.0561054859	 1.5562358068	-0.0055661168	-0.545138
C	 0.0460845702	 0.0598572049	-0.0086668121	-0.026283
C	 0.0732479137	-0.7957611376	-1.0922147985	 0.408152
O	 0.1144423896	-0.599078701	-2.4238641769	-0.42438
N	 0.0505507369	-2.0636501784	-0.617634005	-0.255067
N	 0.0093606561	-2.1240164804	 0.726202524	-0.299123
C	 0.0069509816	-0.839566199	 1.0934881128	 0.204759
C	-0.0324718262	-0.4679645852	 2.466774494	 0.248668
N	-0.0636915741	-0.1031462844	 3.5648290818	-0.351047
H	 0.9655110701	 1.9655522449	-0.4622051215	 0.133371
H	-0.8037845881	 1.9770697682	-0.5408757364	 0.132542
H	 0.0129802008	 1.9310169319	 1.0200102166	 0.164274
H	 0.1274586218	 0.3476220925	-2.6004675978	 0.319409
H	 0.0609683218	-2.9130023832	-1.1584298542	 0.289863
14.9817	123.7231	140.1466	233.3383	240.7662	268.5252	329.3975	422.7026	501.0509	520.5217	566.2418	604.8994	688.4208	702.873	742.4077	775.658	964.5031	1065.2402	1121.1289	1158.7202	1187.0912	1260.3513	1371.0484	1418.2759	1422.9311	1458.0226	1490.1728	1499.3244	1574.0261	1641.5891	2352.3972	3020.3929	3067.8753	3120.1583	3665.8624	3832.364
CC1=C(O)NN=C1C#N	Cc1c(O)[nH]nc1C#N	
InChI=1S/C5H5N3O/c1-3-4(2-6)7-8-5(3)9/h1H3,(H2,7,8,9)	InChI=1S/C5H5N3O/c1-3-4(2-6)7-8-5(3)9/h1H3,(H2,7,8,9)
