21
gdb 56628	2.06408	1.32238	1.13924	1.8898	84.37	-0.2502	0.0607	0.3109	1238.1024	0.179105	-387.042749	-387.032339	-387.031395	-387.07751	39.319	
C	-0.4322153445	 1.3005222339	 0.0203166989	-0.399616
C	 0.0970545994	-0.1446938687	-0.0944080792	-0.215634
C	 0.9399339054	-0.2962013424	-1.2824381107	 0.34494
C	 1.6353954217	-0.3948660536	-2.2584727153	-0.482321
C	 0.8341679614	-0.6017581817	 1.1741918844	 0.341205
C	 2.1496222311	 0.0915012781	 1.4722961782	-0.470323
C	-0.0326033632	-1.0051258842	 2.3566227815	-0.383517
C	 0.7129310484	-2.0511957471	 1.560726682	 0.062437
O	-0.0001411183	-2.8965365108	 0.7044238387	-0.417622
H	 0.38691941	 2.0192822454	 0.1071844618	 0.125699
H	-1.0138894434	 1.5644492752	-0.866735124	 0.123287
H	-1.0740305259	 1.3987977508	 0.9009050024	 0.113825
H	-0.7608341363	-0.8142834324	-0.2189829663	 0.115696
H	 2.2407567039	-0.5001529132	-3.1242646453	 0.190185
H	 2.0017380943	 1.1561042764	 1.6840147543	 0.117535
H	 2.6339203278	-0.3508071507	 2.3483409504	 0.109713
H	 2.835535177	 0.0062703468	 0.623960307	 0.135376
H	 0.3035123353	-0.7603972423	 3.3590089892	 0.107331
H	-1.1092209036	-0.974959268	 2.2192404179	 0.109187
H	 1.5891124101	-2.5102624053	 2.0196871752	 0.084065
H	-0.5139062406	-3.5036478064	 1.2468899888	 0.288553
61.0749	131.3621	181.6691	190.505	214.2572	240.3197	248.8341	275.9876	295.2315	347.0969	404.8408	463.2923	493.72	529.2231	592.6183	616.9897	632.337	717.843	803.4353	851.7883	889.1799	934.2742	952.6569	1015.2472	1037.8699	1040.5259	1086.9809	1108.6449	1114.2173	1140.9832	1175.0195	1257.6497	1275.2713	1321.0612	1329.3646	1366.3187	1404.1609	1417.7044	1429.1907	1486.2452	1488.5667	1492.1304	1504.2833	1509.0625	2231.3638	3032.7958	3044.8242	3052.1815	3091.6191	3096.5953	3110.4961	3118.9085	3122.7764	3123.9931	3210.4211	3505.344	3807.5013
CC(C#C)C1(C)CC1O	C[C@@H](C#C)[C@@]1(C)C[C@H]1O	
InChI=1S/C8H12O/c1-4-6(2)8(3)5-7(8)9/h1,6-7,9H,5H2,2-3H3	InChI=1S/C8H12O/c1-4-6(2)8(3)5-7(8)9/h1,6-7,9H,5H2,2-3H3/t6-,7+,8+/m0/s1
