15
gdb 48654	2.4996	1.40511	1.1436	2.4804	76.25	-0.2451	-0.0429	0.2022	1091.4206	0.109961	-420.55604	-420.547818	-420.546874	-420.588993	30.545	
O	-0.1083612965	-0.010508279	-0.0136218592	-0.266436
C	-0.0288406429	 1.196280247	-0.0206938898	 0.069872
C	 1.2393332186	 1.927547632	 0.0321573089	 0.108454
C	 1.3723342663	 3.4003970101	 0.3699991999	-0.386782
C	 1.8019414871	 2.9835824965	-0.9928216436	 0.258184
O	 3.0880679045	 2.3758721408	-0.9685318081	-0.306952
C	 2.6224173202	 1.3105403689	-0.0889890333	-0.145333
C	 1.2782189563	 3.475070708	-2.2167553226	 0.263326
C	 0.8454453912	 3.9011247297	-3.2549479053	-0.417522
H	-0.9346002359	 1.8399276654	-0.0800081782	 0.077263
H	 0.4310270824	 3.9394520801	 0.415153791	 0.142361
H	 2.1281568838	 3.7120690218	 1.0855629824	 0.134949
H	 3.2218565303	 1.2404094052	 0.8239988184	 0.118462
H	 2.6106783241	 0.3527642407	-0.6148673714	 0.14319
H	 0.4650042305	 4.2735952929	-4.174259109	 0.206962
79.618	147.6183	155.6158	220.5988	252.7318	342.0103	419.2521	480.3985	509.7248	532.759	595.9238	641.2892	700.3947	723.6296	777.3461	809.4519	936.4836	965.1195	980.4959	1029.2045	1040.6701	1083.8342	1128.9832	1146.4309	1210.6895	1302.7585	1335.264	1387.0216	1435.0422	1469.5999	1517.717	1792.4151	2234.9282	2883.2205	3052.4029	3115.1604	3117.5923	3214.6852	3499.2699
O=CC12CC1(OC2)C#C	O=C[C@]12C[C@]1(OC2)C#C	
InChI=1S/C7H6O2/c1-2-7-3-6(7,4-8)5-9-7/h1,4H,3,5H2	InChI=1S/C7H6O2/c1-2-7-3-6(7,4-8)5-9-7/h1,4H,3,5H2/t6-,7+/m0/s1
