20
gdb 114464	3.32277	1.3067	1.1988	2.9456	78.34	-0.2283	0.0666	0.2949	1135.1506	0.17161	-403.067951	-403.060012	-403.059068	-403.100436	31.316	
C	-0.0561574116	 1.6215621989	 0.1109539592	-0.376782
C	 0.1691204499	 0.1309743359	-0.165433377	-0.204796
C	 0.7449982133	-0.5825933726	 1.0435784471	 0.155132
O	-0.130625655	-0.5874073025	 2.2179601096	-0.31219
C	 0.0852934156	-1.9902249469	 2.4287789227	 0.130355
C	-0.9722655946	-2.9730071678	 1.8566036884	-0.081369
N	-1.4923077219	-2.3898497644	 0.6037202468	-0.313835
C	-0.1844719304	-3.0811015028	 0.5861903148	-0.066375
C	 0.9058020216	-2.1245865826	 1.1303939356	-0.131177
H	 0.8804991132	 2.1277904734	 0.3720455564	 0.105269
H	-0.4765622676	 2.1262187041	-0.7642074662	 0.105735
H	-0.7509931771	 1.751871112	 0.9455219191	 0.136826
H	-0.767657975	-0.3495330786	-0.4506456204	 0.131292
H	 0.8780182079	 0.003384625	-0.9953746288	 0.084092
H	 1.6946399385	-0.1012514618	 1.3269625388	 0.066232
H	 0.4712143726	-2.2347937081	 3.4220382447	 0.075985
H	-1.5466694607	-3.7146632504	 2.3988714827	 0.091043
H	-2.1786010542	-3.0494319748	 0.2379643543	 0.232
H	-0.0220702708	-3.9342343209	-0.0612410898	 0.094002
H	 1.9145311162	-2.5346242652	 1.1219473818	 0.078561
88.1998	151.8434	170.7644	233.3866	286.2983	347.3715	437.4002	495.5042	619.8649	696.7682	744.0069	760.5799	795.5864	806.5193	872.7066	881.4497	912.5437	930.3377	946.2872	958.6302	989.8064	1020.6903	1026.773	1073.124	1104.3746	1115.9328	1121.7103	1168.3271	1186.0371	1206.6242	1217.6626	1275.0651	1284.7605	1292.5215	1325.5328	1336.3604	1359.6463	1376.7482	1407.2184	1418.5159	1481.8947	1498.4941	1509.0234	2968.0273	3019.9382	3031.7534	3071.9894	3092.6121	3115.5338	3124.2468	3131.0297	3177.6621	3191.018	3471.3642
CCC1OC2C3NC3C12	CC[C@H]1O[C@H]2[C@H]3N[C@H]3[C@@H]12	
InChI=1S/C7H11NO/c1-2-3-4-5-6(8-5)7(4)9-3/h3-8H,2H2,1H3	InChI=1S/C7H11NO/c1-2-3-4-5-6(8-5)7(4)9-3/h3-8H,2H2,1H3/t3-,4-,5+,6+,7-/m1/s1
