16
gdb 76936	2.24233	1.2213	0.99765	2.808	72.57	-0.263	-0.0472	0.2158	1226.156	0.121542	-437.887503	-437.878098	-437.877154	-437.92188	33.459	
C	-0.0391490966	 1.5751357702	 0.1497378699	-0.421594
C	 0.0289547317	 0.0695033025	 0.006905465	-0.070187
C	 0.6477037343	-0.635013575	-1.2017164343	-0.197811
C	 1.2957225389	 0.1233482527	-2.3036923445	 0.153723
O	 1.2117564204	-0.2056181563	-3.4617748676	-0.257862
C	 1.3261347398	-0.6625095398	 0.1881510831	 0.220433
O	 2.448354349	 0.1314198858	 0.4108011994	-0.442181
C	 1.3289090871	-1.9304205422	 0.8869175756	 0.257044
N	 1.3550317196	-2.9488037633	 1.4345564111	-0.331424
H	 0.9049120926	 2.0577527748	-0.1035440562	 0.148489
H	-0.8253739385	 1.9833548628	-0.4922958144	 0.137192
H	-0.2781663795	 1.8371657797	 1.1845827857	 0.140037
H	-0.8363392105	-0.4568557345	 0.3976439123	 0.130527
H	 0.1710147074	-1.5520612118	-1.5297624372	 0.133086
H	 1.8733542815	 1.0184957218	-1.9994482581	 0.093771
H	 3.2310102327	-0.3443821974	 0.10818379	 0.306756
74.7153	122.5897	154.0278	165.6371	196.27	222.0122	268.5049	357.9934	396.9792	434.3991	444.1448	514.8511	576.4222	620.7417	681.1451	791.8627	911.7671	964.5398	1021.3297	1027.0479	1045.2773	1071.0997	1130.5899	1172.0876	1214.225	1260.2991	1324.1022	1345.095	1416.6922	1428.4654	1447.2022	1493.3048	1505.3321	1809.96	2349.0363	2933.9815	3051.9164	3112.6799	3147.6118	3165.4992	3184.7811	3794.5987
CC1C(C=O)C1(O)C#N	C[C@H]1[C@@H](C=O)[C@]1(O)C#N	
InChI=1S/C6H7NO2/c1-4-5(2-8)6(4,9)3-7/h2,4-5,9H,1H3	InChI=1S/C6H7NO2/c1-4-5(2-8)6(4,9)3-7/h2,4-5,9H,1H3/t4-,5+,6-/m0/s1
