21
gdb 93951	2.92118	1.2407	1.03382	1.3129	78.34	-0.2418	0.0853	0.3271	1246.3919	0.182907	-424.218396	-424.2096	-424.208656	-424.252494	33.002	
C	-0.0335241848	 1.4785416564	 0.1794328438	-0.402408
C	 0.0963973528	-0.0338321556	 0.148264837	 0.151288
C	 0.5836401906	-0.6367891584	-1.1728838276	-0.219124
C	 1.1678445778	-1.9828718924	-0.718359697	-0.264803
C	 1.6313480524	-1.6979885029	 0.7367706781	 0.094432
O	 1.0981977279	-0.426789652	 1.0957740769	-0.281784
C	 1.1785279258	-2.7770382465	 1.7013595401	 0.067664
C	 0.6096464631	-2.4647540294	 3.0148816401	-0.172981
O	-0.2295329387	-2.8661697047	 1.9223048846	-0.240269
H	 0.9168727592	 1.9500605057	-0.0896960174	 0.117958
H	-0.8018556971	 1.8097647245	-0.5262920935	 0.114248
H	-0.3167678442	 1.8220937661	 1.1783417991	 0.123653
H	-0.8610605581	-0.4982768473	 0.4292677786	 0.082054
H	-0.2155699968	-0.7441649448	-1.9107492557	 0.101902
H	 1.3618544245	 0.0040019868	-1.6031000276	 0.099531
H	 0.3915236007	-2.7537016679	-0.7158018239	 0.121064
H	 1.986459082	-2.3328980155	-1.3509350306	 0.1039
H	 2.7262200038	-1.6256268515	 0.7994674113	 0.076785
H	 1.6756265227	-3.7405486105	 1.5643258315	 0.08744
H	 0.6916673957	-3.1874434796	 3.8254962045	 0.109345
H	 0.5144613105	-1.4220189506	 3.3039033079	 0.130107
50.2793	92.9658	151.7221	213.9133	227.7878	241.2405	320.6386	446.004	469.2685	565.4238	606.9492	687.6416	777.659	827.4205	869.3517	877.119	908.6789	915.0475	969.6329	984.9464	1004.33	1022.9324	1075.6766	1094.1744	1131.0314	1136.1348	1162.5629	1165.6155	1171.0598	1215.3193	1222.3191	1286.8004	1306.262	1323.7924	1339.6346	1352.6579	1388.1505	1398.1995	1414.7154	1429.5057	1482.2686	1486.9195	1498.4692	1501.8161	1517.0378	2988.3545	3004.6585	3038.2999	3043.8435	3060.7647	3081.4783	3096.1978	3100.3666	3112.4444	3114.973	3116.767	3197.5048
CC1CCC(O1)C1CO1	C[C@H]1CC[C@@H](O1)[C@H]1CO1	
InChI=1S/C7H12O2/c1-5-2-3-6(9-5)7-4-8-7/h5-7H,2-4H2,1H3	InChI=1S/C7H12O2/c1-5-2-3-6(9-5)7-4-8-7/h5-7H,2-4H2,1H3/t5-,6+,7+/m0/s1
