20
gdb 89022	3.71443	0.8026	0.70681	3.5306	76.68	-0.2431	0.0373	0.2804	1612.8052	0.16905	-440.298486	-440.288301	-440.287357	-440.334954	36.405	
C	-0.2356216024	 1.7726248749	 0.4474937376	-0.400782
C	-0.0895228428	 0.2816265212	 0.2388442391	-0.028624
C	 1.2851274235	-0.3378462566	 0.0633183754	-0.323275
C	 0.4783301678	-0.5975600696	 1.3126663654	 0.124741
O	 0.8579729986	 0.0155859104	 2.5080766327	-0.261157
C	 1.9268865591	-0.6356245789	 3.1701653272	-0.152267
C	 2.2407508831	 0.0361096504	 4.5067864104	 0.356518
N	 1.4001492786	 1.0447575445	 4.8438066945	-0.508108
O	 3.1756398921	-0.3432824802	 5.1844033518	-0.366422
H	 0.5629167875	 2.1591886413	 1.085129063	 0.124902
H	-0.1974625647	 2.3047532338	-0.5086980661	 0.119316
H	-1.1912721975	 2.0131507963	 0.9261713145	 0.116913
H	-0.8867497366	-0.1726473974	-0.3437053873	 0.089608
H	 1.4236712349	-1.1420403849	-0.6508423699	 0.114911
H	 2.1346288496	 0.3299487666	 0.1659633944	 0.120429
H	 0.0526160143	-1.5923021536	 1.4501247975	 0.089032
H	 1.6830369506	-1.6884417755	 3.3764887934	 0.123034
H	 2.8410289494	-0.6253164202	 2.5618039536	 0.127871
H	 0.6431770972	 1.2960576333	 4.2315591202	 0.272935
H	 1.5414167278	 1.5261524942	 5.7155542424	 0.260425
35.7914	53.0787	104.1174	115.7234	205.8622	230.3711	267.4187	270.4365	348.7119	431.3068	472.7304	535.9042	550.2837	589.7728	686.0689	759.0159	828.3511	855.7062	910.434	925.5688	983.0354	1028.5632	1035.1636	1064.0077	1093.1355	1108.3671	1119.6469	1149.4599	1185.4112	1195.2801	1242.3486	1255.0399	1348.973	1375.2739	1387.2184	1418.0177	1421.5601	1482.1895	1494.4612	1497.1812	1506.8568	1596.7123	1809.4314	3000.7635	3035.4677	3043.9897	3091.6361	3093.6371	3119.9175	3130.9472	3144.2247	3219.1916	3604.3502	3746.2443
CC1CC1OCC(N)=O	C[C@H]1C[C@H]1OCC(=O)N	
InChI=1S/C6H11NO2/c1-4-2-5(4)9-3-6(7)8/h4-5H,2-3H2,1H3,(H2,7,8)	InChI=1S/C6H11NO2/c1-4-2-5(4)9-3-6(7)8/h4-5H,2-3H2,1H3,(H2,7,8)/t4-,5+/m0/s1
