19
gdb 59497	3.83739	0.84335	0.74156	5.4412	77.31	-0.2534	0.0278	0.2812	1522.4113	0.157547	-419.181328	-419.171521	-419.170577	-419.216616	35.292	
C	 0.3312466159	-2.0616001521	-1.9009614028	-0.411167
C	 0.1759251374	-1.7762752206	-0.4071399278	 0.110933
O	 1.030043472	-0.7142494043	 0.0196839042	-0.429355
C	-1.2712091461	-1.4822140944	-0.0526026176	-0.005015
C	-2.1632255303	-2.5327065676	 0.5207454147	-0.258246
N	-1.7472268012	-1.390481482	 1.3271826842	-0.086323
C	-0.8010666692	-1.623700261	 2.4140800727	-0.288168
C	-1.5223759733	-1.8209014774	 3.6768256814	 0.280791
N	-2.0749986235	-1.9927683529	 4.6762100049	-0.302282
H	 1.3831295077	-2.2333221226	-2.1424083892	 0.131845
H	-0.2474083655	-2.9419669261	-2.1971697169	 0.127051
H	-0.0240625854	-1.211956107	-2.4969144795	 0.113884
H	 0.5277952865	-2.6472734467	 0.1555157043	 0.091331
H	 0.7889866721	 0.077315024	-0.4752862592	 0.282382
H	-1.7237265404	-0.7245806862	-0.6952170183	 0.092532
H	-3.2177493997	-2.5757194594	 0.2650914362	 0.129408
H	-1.7085068456	-3.4998420852	 0.7354743882	 0.116101
H	-0.1440715909	-2.4953683635	 2.2684351064	 0.134739
H	-0.1488140105	-0.7496649348	 2.502974594	 0.169558
49.2695	83.9162	106.9709	173.2497	230.2903	249.2337	290.9565	316.9952	375.2162	382.1073	396.66	493.0025	512.8411	614.448	767.9222	832.7127	897.6591	918.8535	951.9682	987.778	997.7678	1054.7215	1073.4553	1095.2119	1106.3082	1130.7713	1159.0924	1194.6634	1269.0896	1272.4995	1325.3157	1339.0738	1372.4451	1403.8535	1417.3584	1430.764	1468.6071	1490.1795	1494.6035	1511.41	2368.2197	2984.4493	3029.3529	3057.1044	3086.8831	3089.7098	3090.8221	3102.0806	3126.1455	3185.0414	3795.9812
CC(O)C1CN1CC#N	C[C@@H](O)[C@H]1CN1CC#N	
InChI=1S/C6H10N2O/c1-5(9)6-4-8(6)3-2-7/h5-6,9H,3-4H2,1H3	InChI=1S/C6H10N2O/c1-5(9)6-4-8(6)3-2-7/h5-6,9H,3-4H2,1H3/t5-,6-,8?/m1/s1
