14
gdb 9190	7.55511	0.9121	0.82223	3.8775	60.5	-0.2707	0.0059	0.2766	1310.6397	0.106076	-415.9063	-415.897342	-415.896398	-415.942207	28.942	
C	-0.000139407	 1.3804119301	 0.1479100135	-0.333095
N	 0.161434278	-0.0503345299	-0.0131703613	-0.361936
C	 0.6381712962	-0.6006733014	-1.1525270605	 0.543538
O	 0.9839441383	-0.0196237869	-2.1564595472	-0.404151
O	 0.6814132262	-1.9650567876	-1.0177583829	-0.270944
C	 1.1740498983	-2.6295423121	-2.1778090793	-0.191945
C	 1.1691678608	-4.0670555072	-1.9073453503	 0.26456
N	 1.1791957587	-5.2074658391	-1.7288638478	-0.291399
H	 0.6118758375	 1.7590945012	 0.9735710121	 0.133775
H	 0.3232389191	 1.8550883098	-0.7788466763	 0.173606
H	-1.0466307307	 1.6435978421	 0.3357030522	 0.133778
H	-0.0831614674	-0.6761741754	 0.7360895073	 0.262615
H	 0.5470494235	-2.4103564167	-3.0483308528	 0.170817
H	 2.1898134084	-2.296933987	-2.4156892166	 0.170782
13.8979	69.3819	110.6272	117.4049	155.2237	244.2757	324.0874	375.7163	439.8704	481.465	572.0493	725.7778	772.8982	927.8232	981.3418	1018.4353	1047.0003	1159.2606	1169.0289	1179.544	1247.2678	1250.4804	1386.6153	1449.38	1486.3339	1496.9837	1502.0163	1573.3662	1828.0033	2376.3275	3032.9361	3054.9155	3086.4043	3092.7531	3157.2587	3656.0113
CNC(=O)OCC#N	CNC(=O)OCC#N	
InChI=1S/C4H6N2O2/c1-6-4(7)8-3-2-5/h3H2,1H3,(H,6,7)	InChI=1S/C4H6N2O2/c1-6-4(7)8-3-2-5/h3H2,1H3,(H,6,7)
