17
gdb 62752	2.49875	1.55669	1.25669	3.9241	69.15	-0.2634	0.0028	0.2662	1048.9078	0.133234	-458.963663	-458.954734	-458.953789	-458.996732	33.42	
C	 0.0288037436	 1.5382246837	-0.0412321328	-0.48045
C	 0.1024129106	 0.0312388858	-0.0086113318	 0.329536
O	-0.971772344	-0.6206352897	-0.6177986306	-0.450922
C	 1.3514287802	-0.7566765335	-0.1623504686	 0.006148
O	 2.4711325116	-0.0094507857	 0.3692309865	-0.267262
C	 1.9284720795	-0.0994385153	 1.6546372553	 0.41879
O	 2.4239952914	 0.2691703695	 2.6694575003	-0.328957
C	 0.6795526467	-0.8000283669	 1.2001048171	 0.028725
C	-0.1019613416	-1.8296717011	 1.9571165871	-0.508879
H	 0.9386759437	 1.9964240004	 0.3482675998	 0.159799
H	-0.1170355007	 1.8752895692	-1.0722932088	 0.136564
H	-0.8164008847	 1.8946085824	 0.5593737834	 0.119254
H	-1.7888125433	-0.2855671444	-0.2308681779	 0.29356
H	 1.5533407131	-1.5287200425	-0.8922650868	 0.134325
H	-0.5088762504	-1.4007786555	 2.8788726633	 0.138145
H	-0.9314351154	-2.1967172587	 1.3481713006	 0.134041
H	 0.5232328497	-2.6835327579	 2.2359452641	 0.137581
130.3829	161.1744	181.2188	201.3843	244.0996	265.5049	290.6442	318.7378	404.245	414.4291	528.2157	574.8715	618.1114	686.1421	745.1933	788.2977	847.4858	913.4488	939.1873	1000.5835	1003.2678	1059.1866	1096.4104	1103.7277	1139.2881	1189.4154	1226.0905	1276.3387	1373.5252	1412.0784	1417.7962	1456.6992	1482.8442	1491.8119	1498.0647	1507.9413	1933.8365	3034.5427	3040.1567	3098.3455	3100.2877	3127.1679	3146.4666	3217.779	3796.5781
CC1(O)C2OC(=O)C12C	C[C@@]1(O)[C@H]2OC(=O)[C@@]12C	
InChI=1S/C6H8O3/c1-5-3(6(5,2)8)9-4(5)7/h3,8H,1-2H3	InChI=1S/C6H8O3/c1-5-3(6(5,2)8)9-4(5)7/h3,8H,1-2H3/t3-,5-,6+/m0/s1
