23
gdb 90731	2.97756	1.29131	1.01315	0.1526	91.58	-0.2235	0.0336	0.2572	1283.2011	0.206653	-351.174522	-351.165646	-351.164702	-351.207866	34.785	
C	-0.6406689294	 1.057385646	-0.2625655804	-0.409549
C	 0.3303886001	-0.108628973	-0.1492963779	 0.056765
C	 1.777336248	 0.098414627	-0.6872227338	-0.251235
C	 2.3343767544	-0.5266026417	 0.6262290007	-0.111694
C	 0.9104075798	-0.4376498542	 1.2636994996	-0.017135
C	 0.5852952425	-1.825428905	 1.8477681531	-0.278812
C	 1.6610407887	-2.6997159242	 1.2441918714	-0.16398
C	 2.6054133468	-2.0138600479	 0.5921260568	 0.332714
C	 3.815084574	-2.5718631985	-0.0919434898	-0.495619
H	-0.2118322268	 1.9693287629	 0.1694189419	 0.109092
H	-0.888524741	 1.2713979753	-1.3085396813	 0.111314
H	-1.5783937972	 0.849016938	 0.2655218585	 0.111534
H	-0.1198477513	-1.0064989901	-0.5867884743	 0.067929
H	 2.035850255	-0.4015942542	-1.625320812	 0.090844
H	 2.0340532479	 1.1585874585	-0.7806722231	 0.091138
H	 3.1579026907	 0.0267184284	 1.0927853325	 0.061391
H	 0.7630512511	 0.380529609	 1.9729416633	 0.056427
H	 0.6280830996	-1.8418366071	 2.9461782243	 0.097358
H	-0.4275780789	-2.1556627639	 1.5784741683	 0.096438
H	 1.6595802782	-3.7802421308	 1.3543280217	 0.078301
H	 3.8481922088	-3.6632508285	-0.0322400791	 0.120362
H	 3.841116634	-2.2888847979	-1.1519098695	 0.12434
H	 4.7376538153	-2.1786934381	 0.354871629	 0.122079
68.4462	166.751	173.5877	226.0613	247.101	282.9889	302.2288	332.3117	422.1797	517.3947	582.5249	682.0702	753.0522	783.9554	801.2073	840.586	870.8476	899.7216	923.2136	950.2758	977.4611	994.6209	1011.1099	1040.9585	1046.498	1088.3403	1099.2289	1120.6864	1161.4379	1172.4664	1209.3167	1217.0731	1244.1297	1263.4601	1269.9559	1291.1569	1302.044	1325.0764	1360.5652	1374.9108	1407.9764	1412.4685	1478.0766	1484.613	1486.6149	1489.9825	1494.9092	1496.203	1712.5957	2999.2236	3014.7494	3018.3574	3024.5176	3027.2292	3038.1296	3043.8853	3060.1328	3076.5593	3084.7578	3086.9491	3095.0629	3107.141	3173.0692
CC1CC2C1CC=C2C	C[C@H]1C[C@H]2[C@@H]1CC=C2C	
InChI=1S/C9H14/c1-6-3-4-8-7(2)5-9(6)8/h3,7-9H,4-5H2,1-2H3	InChI=1S/C9H14/c1-6-3-4-8-7(2)5-9(6)8/h3,7-9H,4-5H2,1-2H3/t7-,8+,9+/m0/s1
