22
gdb 118918	2.71248	0.95105	0.91941	2.4753	83.22	-0.2377	-0.0205	0.2172	1456.0207	0.192215	-404.354031	-404.343733	-404.342788	-404.389666	37.473	
C	-0.1729039065	 1.5894928664	-0.1255994738	-0.380156
C	-0.0869493455	 0.0625981171	-0.0426713565	-0.179946
C	 0.8079114457	-0.5347371713	-1.1350724162	-0.18356
C	 0.8260596029	-2.0690310735	-1.1667898381	 0.173897
C	 1.4443874496	-2.701791197	 0.0839289245	-0.448731
N	-0.4961694459	-2.6600936611	-1.5751785742	-0.351511
C	 0.0887144715	-3.3885184279	-2.7334596524	-0.289817
C	 1.4143661403	-2.661409564	-2.466232701	 0.356807
O	 2.4645926191	-2.5700391487	-3.0284491037	-0.298838
H	 0.8153002714	 2.0495975386	-0.0145585776	 0.114252
H	-0.5795237056	 1.9102210747	-1.0909704908	 0.117215
H	-0.8190387017	 1.9946499977	 0.6594462889	 0.110943
H	 0.2856853751	-0.2233720243	 0.9484822951	 0.093276
H	-1.0895561875	-0.3709651959	-0.1389058998	 0.109782
H	 0.4549999613	-0.1790738073	-2.1108061158	 0.097118
H	 1.8393328515	-0.1759324256	-1.0251804122	 0.10342
H	 0.8405957851	-2.482118359	 0.9703676199	 0.127247
H	 1.514596494	-3.7902712186	-0.015170095	 0.115954
H	 2.4532419953	-2.3143513795	 0.2551967023	 0.136702
H	-0.8856754644	-3.2791210627	-0.8730711881	 0.218479
H	 0.1749598401	-4.4782871292	-2.6263113921	 0.123667
H	-0.3902714759	-3.1732968088	-3.6949989735	 0.133799
70.4335	86.6225	105.7868	114.5904	194.5068	231.7092	242.8713	282.5729	310.6929	355.0261	406.2022	526.1903	557.2307	658.0918	739.2798	743.9515	769.3277	876.373	887.8407	905.5066	949.2461	967.3067	1010.5279	1033.523	1046.7625	1055.983	1091.0054	1133.303	1182.7396	1202.818	1227.5806	1274.0899	1284.6344	1322.2488	1336.3163	1374.0086	1395.4375	1401.5976	1412.3706	1471.7956	1472.779	1492.0403	1494.1343	1494.5256	1499.3387	1510.1822	1906.726	3015.151	3019.7229	3027.448	3030.9129	3032.6749	3052.4857	3067.4043	3071.7862	3097.8038	3100.0887	3101.9359	3111.3783	3535.9695
CCCC1(C)NCC1=O	CCC[C@@]1(C)NCC1=O	
InChI=1S/C7H13NO/c1-3-4-7(2)6(9)5-8-7/h8H,3-5H2,1-2H3	InChI=1S/C7H13NO/c1-3-4-7(2)6(9)5-8-7/h8H,3-5H2,1-2H3/t7-/m1/s1
