21
gdb 84842	2.19898	1.81313	1.20302	1.0815	83.37	-0.2385	0.025	0.2634	1106.9173	0.182963	-387.09577	-387.087179	-387.086235	-387.128353	34.482	
C	-0.9823834764	 1.0232430732	 0.0619971357	-0.40551
C	 0.0939525913	-0.0649751252	-0.0989169344	-0.095958
C	 1.0434031319	 0.257119199	-1.2265150441	-0.039511
C	 2.344103499	-0.0291601684	-1.2295726126	-0.087741
C	 3.0558896579	-0.7166375049	-0.0957759587	-0.280195
C	 2.2817893757	-0.67237213	 1.2087452281	-0.078982
C	 1.8047856316	 0.6586936555	 1.7647615597	-0.353881
C	 0.8197355817	-0.3437932954	 1.2128982952	 0.414586
O	 0.0631827581	-1.0774901611	 2.1445712994	-0.481315
H	-0.5332509407	 1.9840306735	 0.3340737206	 0.120633
H	-1.5397516754	 1.1622393662	-0.8699695394	 0.114441
H	-1.7077993231	 0.7533842089	 0.8370729243	 0.101251
H	-0.4248467179	-1.002401038	-0.3520725973	 0.094762
H	 0.6002506749	 0.7393185529	-2.0956913656	 0.080552
H	 2.9443219756	 0.2215815231	-2.1008691497	 0.085198
H	 3.2396380863	-1.7650282625	-0.3741404736	 0.114696
H	 4.0523592626	-0.2742145049	 0.0418053467	 0.105141
H	 2.5791148454	-1.4021508854	 1.9549621681	 0.092816
H	 1.8286886016	 0.7860234237	 2.8412494076	 0.106613
H	 2.011433104	 1.5535816872	 1.1864554742	 0.112893
H	-0.5964188842	-0.4856208675	 2.5221124461	 0.279513
91.7243	207.0193	231.0103	254.8227	271.2144	300.4803	347.7872	402.8508	417.9319	504.2388	512.1739	573.2122	658.755	732.5611	778.9022	811.7242	861.4025	909.2333	924.0976	936.0056	961.2909	1000.5209	1026.7407	1033.8352	1052.8208	1092.2112	1095.6876	1109.9631	1149.5881	1193.3531	1213.8274	1237.0806	1282.1444	1326.6437	1330.7492	1355.1948	1366.578	1400.9681	1404.975	1422.5704	1476.039	1489.4278	1495.6735	1500.9022	1723.9364	2985.4436	2997.0759	3021.0233	3029.7819	3095.6153	3104.8357	3128.4421	3136.2659	3160.5766	3162.9114	3220.0626	3799.5287
CC1C=CCC2CC12O	C[C@H]1C=CC[C@H]2C[C@@]12O	
InChI=1S/C8H12O/c1-6-3-2-4-7-5-8(6,7)9/h2-3,6-7,9H,4-5H2,1H3	InChI=1S/C8H12O/c1-6-3-2-4-7-5-8(6,7)9/h2-3,6-7,9H,4-5H2,1H3/t6-,7-,8+/m0/s1
