16
gdb 30972	2.35828	1.47712	0.94325	4.3665	69.13	-0.1998	0.0403	0.2401	1210.9587	0.123128	-475.073158	-475.06406	-475.063116	-475.107398	31.953	
C	 0.015634205	 1.3510923614	-0.054329099	-0.257634
O	 0.7277610865	 0.1235897385	 0.1637815974	-0.267024
C	 0.9591880499	-0.6036036507	-0.9299702095	 0.34088
C	 0.7284902074	-1.8978640882	-1.1891141751	 0.168145
C	 0.0675949497	-2.9578574047	-0.3857570697	-0.506152
N	 1.2971895343	-2.1146102843	-2.4623898313	-0.427099
C	 1.8352891959	-0.9593388297	-2.9667326296	 0.485253
O	 2.3789082097	-0.7445710483	-4.0152483486	-0.402364
O	 1.6262315088	-0.000391839	-1.9821153969	-0.247822
H	 0.5774901606	 2.0132117797	-0.7186073252	 0.151694
H	-0.9727023914	 1.150597881	-0.484084978	 0.125322
H	-0.0931061695	 1.8143614279	 0.9266620451	 0.140917
H	-0.7861079724	-3.3981537463	-0.9153311277	 0.133809
H	 0.758375713	-3.7733092405	-0.138208249	 0.137274
H	-0.2957700973	-2.5286151919	 0.5500631831	 0.152444
H	 1.3083030198	-2.9775699848	-2.976513236	 0.272358
67.7794	131.9702	152.999	169.5436	190.7471	237.2789	246.6676	322.9919	402.6776	463.5125	594.8114	619.3816	635.6073	679.1815	760.7159	830.9278	939.7114	995.3027	1027.0895	1064.8357	1072.3977	1174.8332	1206.9987	1237.325	1305.0011	1313.98	1411.7139	1435.4188	1479.152	1485.0269	1486.9967	1498.2517	1504.4118	1791.1321	1903.7862	3020.709	3029.1243	3066.3739	3109.5226	3133.7915	3153.2248	3693.9889
COC1=C(C)NC(=O)O1	COc1c(C)[nH]c(=O)o1	
InChI=1S/C5H7NO3/c1-3-4(8-2)9-5(7)6-3/h1-2H3,(H,6,7)	InChI=1S/C5H7NO3/c1-3-4(8-2)9-5(7)6-3/h1-2H3,(H,6,7)
