22
gdb 113663	2.83226	1.03178	0.82374	3.0752	84.51	-0.2409	0.0146	0.2554	1495.2054	0.192285	-404.364034	-404.353593	-404.352649	-404.40039	37.285	
C	 0.0342464007	 1.5351526897	-0.2631036272	-0.387892
C	-0.1224489851	 0.1610994406	 0.3991721068	-0.193231
C	-1.4566411391	-0.4910061334	 0.101548637	 0.018318
C	-2.0180124123	-1.5641790808	 0.997586997	-0.276377
N	-2.6284208166	-0.2556318565	 0.917605704	-0.080843
C	-2.8157142245	 0.6710114482	 1.9315425283	 0.384493
O	-2.4957008347	 1.837162036	 1.8199766302	-0.349261
C	-3.5429249412	 0.1207927065	 3.1536232166	-0.280065
C	-4.0706646318	 1.2209715774	 4.0716176535	-0.371029
H	 1.0230454651	 1.9552449483	-0.0555063684	 0.108627
H	-0.0720993595	 1.4595243719	-1.3510980751	 0.108224
H	-0.7261916556	 2.2221863903	 0.1132009198	 0.161834
H	 0.6655692947	-0.5172128452	 0.0461817221	 0.100258
H	 0.003205588	 0.2507884576	 1.4842237786	 0.101879
H	-1.6863237139	-0.5771436181	-0.9609751062	 0.098709
H	-2.5856513791	-2.3927491603	 0.5806065096	 0.122291
H	-1.4495720453	-1.8056473757	 1.8942627275	 0.122202
H	-4.346356445	-0.5423913552	 2.8135505878	 0.123182
H	-2.8385468981	-0.5258226836	 3.6955451457	 0.118052
H	-4.5440595073	 0.7889127765	 4.957892069	 0.106393
H	-3.2604846336	 1.8795506837	 4.3922426536	 0.135124
H	-4.8080013858	 1.8410485022	 3.5547059595	 0.129113
36.959	71.8367	117.558	125.7451	179.8912	194.0098	243.524	254.381	291.4838	380.316	424.7859	485.3887	568.6315	613.1133	736.6561	772.7831	812.7689	818.7251	910.099	963.3082	991.6726	1010.5139	1060.9696	1070.2901	1091.3048	1095.9026	1124.4203	1131.9741	1162.2688	1173.2163	1195.2266	1282.5128	1291.2063	1341.081	1348.296	1402.2076	1409.2579	1412.3226	1445.5374	1459.9474	1476.0093	1491.0818	1497.8063	1499.9007	1514.3634	1518.9355	1773.0567	3020.3643	3021.413	3036.773	3050.7901	3063.6985	3066.0874	3092.9527	3099.0118	3106.1593	3119.62	3132.4135	3142.2105	3178.6752
CCC1CN1C(=O)CC	CC[C@H]1CN1C(=O)CC	
InChI=1S/C7H13NO/c1-3-6-5-8(6)7(9)4-2/h6H,3-5H2,1-2H3	InChI=1S/C7H13NO/c1-3-6-5-8(6)7(9)4-2/h6H,3-5H2,1-2H3/t6-,8?/m0/s1
