21
gdb 72231	2.40508	1.94903	1.34254	1.583	81.73	-0.2158	0.0891	0.3049	1040.0022	0.182843	-387.075646	-387.067392	-387.066448	-387.107751	33.101	
C	-0.055261804	 1.4891682011	-0.016126808	-0.495145
C	-0.007000787	-0.019763009	-0.0251111716	 0.264151
C	 1.0260250563	-0.7190589353	-0.9222353107	-0.276165
C	 0.3846432486	-2.0878651233	-1.2785132912	-0.209903
C	-0.6909410577	-2.2308313936	-0.2082628356	 0.088977
O	-0.0217106479	-2.1678036314	 1.0955075093	-0.347226
C	-0.4232715452	-0.7946328378	 1.2231228458	 0.43914
C	-0.5729094168	-0.2786199739	 2.6170920529	-0.503026
C	-1.2987630484	-0.8322049108	 0.0024696861	-0.256047
H	 0.8727610308	 1.9165503567	 0.3812988375	 0.11985
H	-0.1892204214	 1.878764252	-1.0322737815	 0.11674
H	-0.8815802439	 1.8715848353	 0.590718323	 0.115922
H	 1.2249159675	-0.1180754127	-1.8154102135	 0.092622
H	 1.9789430935	-0.8512839555	-0.4007679223	 0.106522
H	-0.0746220568	-2.0694623087	-2.2740322666	 0.094769
H	 1.0982631354	-2.9160472672	-1.2478734637	 0.104797
H	-1.3491837741	-3.0990307266	-0.2777343963	 0.074595
H	 0.3912962114	-0.3082198416	 3.1375813954	 0.129743
H	-0.9307940787	 0.7536415726	 2.6255545535	 0.123587
H	-1.2794194704	-0.8960749072	 3.1807003521	 0.128744
H	-2.3004529214	-0.4766759729	-0.2009360347	 0.087351
170.9495	188.1725	195.4934	211.99	266.4192	304.9838	340.7002	412.3815	485.8123	587.2984	599.1124	725.7354	741.8812	759.31	844.0066	875.8359	879.2329	902.5766	926.5965	950.342	963.3078	982.6581	1017.0005	1028.9487	1099.6364	1106.9055	1151.3266	1171.2115	1175.5589	1209.3486	1218.7745	1266.6086	1293.8487	1305.6142	1329.4724	1350.465	1402.9369	1418.9	1448.4424	1473.3589	1474.2007	1490.0255	1494.2085	1498.3746	1511.5161	3021.7269	3034.4631	3035.8571	3048.5909	3077.667	3080.6249	3094.696	3095.4995	3098.8355	3100.7362	3124.957	3193.5827
CC12CCC3OC1(C)C23	C[C@@]12CC[C@H]3O[C@]1(C)[C@@H]23	
InChI=1S/C8H12O/c1-7-4-3-5-6(7)8(7,2)9-5/h5-6H,3-4H2,1-2H3	InChI=1S/C8H12O/c1-7-4-3-5-6(7)8(7,2)9-5/h5-6H,3-4H2,1-2H3/t5-,6-,7+,8-/m1/s1
