14
gdb 43268	4.01827	1.26987	1.13162	4.0794	75.05	-0.2584	-0.0627	0.1957	1054.6958	0.100394	-399.517063	-399.509714	-399.50877	-399.548805	28.407	
O	 0.014655342	-0.0314077572	 0.1439156393	-0.313729
C	-0.0451177734	 1.1619329576	 0.030222662	 0.370267
C	-1.2451849645	 2.0391590564	 0.0172549344	-0.197824
C	-0.8615169387	 3.3193545743	 0.0060201147	-0.13787
C	 0.6319591925	 3.406824849	-0.0454499685	 0.092354
C	 1.3774393523	 2.8085637909	 1.1214107702	-0.259735
N	 1.1309057723	 2.0146401604	-0.0896098589	-0.152295
C	 1.2444394924	 4.4049555753	-0.8775030715	 0.216182
C	 1.727455697	 5.2731429462	-1.5529464988	-0.3769
H	-2.2496173976	 1.6460008619	 0.0896708373	 0.13636
H	-1.4921096812	 4.1989244484	 0.0019195828	 0.137584
H	 2.4121148344	 3.096699915	 1.2802192161	 0.14562
H	 0.8029528015	 2.5746795017	 2.0142017162	 0.138513
H	 2.1636543512	 6.0271374601	-2.1608527453	 0.201475
110.8258	143.8913	205.6343	321.5046	409.0977	429.901	512.4666	522.7113	592.8473	623.1416	668.5742	686.858	761.8552	772.8193	811.7465	862.7213	869.1741	930.8177	967.5795	982.7021	1076.4524	1104.2989	1124.0162	1156.4257	1239.4402	1308.8993	1356.0017	1490.9097	1639.5174	1847.1334	2246.6161	3111.1272	3212.0524	3220.8164	3246.6058	3500.6976
O=C1C=CC2(CN12)C#C	O=C1C=C[C@]2(CN12)C#C	
InChI=1S/C7H5NO/c1-2-7-4-3-6(9)8(7)5-7/h1,3-4H,5H2	InChI=1S/C7H5NO/c1-2-7-4-3-6(9)8(7)5-7/h1,3-4H,5H2/t7-,8?/m0/s1
