19
gdb 120238	3.14423	1.08454	0.90538	3.4761	77.66	-0.2354	0.0005	0.236	1342.051	0.158479	-419.151227	-419.142264	-419.14132	-419.1859	32.573	
C	 0.074696971	 1.5442395853	 0.0228119337	-0.384921
C	-0.1246783102	 0.0479634905	 0.1882644082	-0.04672
O	 0.8795811283	-0.4403002491	 1.0671535109	-0.252645
C	 0.9028100914	-1.8319785311	 1.2101288499	 0.032057
C	 2.0371838467	-2.3764330295	 2.063353146	-0.070302
C	 1.8607608228	-2.0143318655	 3.4769721802	-0.234387
N	 1.0597758923	-3.1587502769	 2.9548627268	-0.141823
C	-0.0303832997	-2.5379010912	 2.2272878167	 0.331673
N	-1.2544584966	-2.7073963605	 2.4533938064	-0.508834
H	 1.0624520828	 1.7547917198	-0.396391198	 0.130043
H	-0.6848857064	 1.9567855221	-0.6476224904	 0.119733
H	-0.0033996757	 2.0502076282	 0.9890492215	 0.131836
H	-1.1258998297	-0.161662279	 0.5946059133	 0.094621
H	-0.0512435839	-0.4665930401	-0.7839679116	 0.092778
H	 0.8448183806	-2.3334687937	 0.2309136727	 0.093174
H	 2.9307465722	-2.853826427	 1.6809469271	 0.110703
H	 2.6249116217	-2.3331081793	 4.1777937623	 0.135841
H	 1.3453702778	-1.0957187599	 3.7405371973	 0.140529
H	-1.8252963656	-2.1955873232	 1.7793985772	 0.226644
56.3152	67.6018	103.4414	195.088	223.3007	258.8897	296.3827	392.7312	476.4821	526.9925	667.3588	695.657	755.1835	820.4037	833.0796	848.4122	903.097	911.4132	969.3221	983.168	1024.2827	1054.9678	1065.2599	1113.8211	1134.8021	1147.7428	1169.4207	1186.5159	1204.7646	1251.8353	1285.9659	1298.5847	1356.8366	1367.706	1404.2316	1438.0266	1483.5657	1498.8704	1502.2156	1525.0961	1796.4859	2967.5806	2983.4438	3002.0847	3047.3168	3122.6107	3125.2418	3127.6492	3196.1854	3220.6946	3476.2158
CCOC1C2CN2C1=N	CCO[C@H]1[C@H]2CN2[C]1[NH]	
InChI=1S/C6H10N2O/c1-2-9-5-4-3-8(4)6(5)7/h4-5,7H,2-3H2,1H3	InChI=1S/C6H10N2O/c1-2-9-5-4-3-8(4)6(5)7/h4-5,7H,2-3H2,1H3/t4-,5+,8?/m1/s1
