15
gdb 19869	3.92919	2.35809	2.09119	2.7644	59.22	-0.2247	0.0695	0.2942	696.9715	0.121486	-399.737461	-399.731675	-399.730731	-399.767242	23.019	
C	 0.2080031693	 1.2736743022	 0.3270584883	 0.041936
O	 1.3179578217	 1.879906097	-0.3239090199	-0.267545
C	 2.0324894192	 0.8703339633	-0.9900876274	 0.083616
C	 3.0912433693	 0.041531773	-0.2291477608	-0.082701
N	 2.4552289921	-0.416038492	 1.0245761361	-0.335493
C	 2.1892716227	-1.1570645272	-0.2267627786	-0.0827
C	 1.0982492657	-0.3711381587	-0.9876135318	 0.083616
O	-0.0684217544	 0.037601477	-0.3202335139	-0.267544
H	 0.4380004842	 1.102703503	 1.3835371075	 0.117513
H	-0.663439635	 1.9292254612	 0.2106853117	 0.102769
H	 2.3728415584	 1.2371762891	-1.9605904715	 0.090689
H	 4.1685431456	 0.0992754232	-0.32133349	 0.094949
H	 3.1557121741	-0.9421328994	 1.5450925313	 0.235258
H	 2.4319146387	-2.2084611323	-0.3167465545	 0.094949
H	 0.8381348085	-0.8022265094	-1.9565261865	 0.090688
161.9799	244.3495	287.5607	473.8099	625.1486	632.7132	735.589	752.6743	811.7984	863.6982	867.8694	905.8277	919.5493	965.9118	975.8649	1010.0018	1023.149	1078.3945	1102.1471	1128.8829	1139.8132	1165.0431	1196.7373	1213.8932	1238.2559	1265.9484	1312.1293	1344.5528	1366.8547	1377.5094	1441.9961	1535.8604	3025.3066	3079.1924	3087.8114	3097.8704	3187.7785	3200.9969	3481.7849
C1OC2C3NC3C2O1	C1O[C@H]2[C@H]3N[C@H]3[C@H]2O1	
InChI=1S/C5H7NO2/c1-7-4-2-3(6-2)5(4)8-1/h2-6H,1H2	InChI=1S/C5H7NO2/c1-7-4-2-3(6-2)5(4)8-1/h2-6H,1H2/t2-,3+,4-,5+
