21
gdb 90711	3.11376	1.18623	1.14626	1.2339	78.09	-0.2457	0.0729	0.3187	1186.1487	0.181232	-424.19759	-424.188503	-424.187559	-424.230958	35.837	
C	 0.1639947317	 1.5382788086	-0.103566986	-0.452793
C	 0.0961941886	 0.0224166983	-0.0024242813	 0.41197
O	-1.2574112042	-0.4199289862	-0.0963302616	-0.484418
C	 1.0270526036	-0.8378093995	-0.9181446748	-0.294798
C	 1.3515447193	-1.7680842722	 0.2854737023	-0.033519
C	 2.7059193574	-1.4958245226	 0.9608923086	 0.130646
O	 3.7704027455	-1.2747088529	 0.0619862784	-0.429833
C	 2.0871310089	-0.2757633512	 1.7131378716	-0.306061
C	 0.672320139	-0.7123450255	 1.2331018968	-0.036799
H	 1.1852691246	 1.9151003935	-0.0007665102	 0.116513
H	-0.2056317577	 1.8686545405	-1.0828025	 0.103902
H	-0.4612423679	 2.0009344256	 0.6666535237	 0.121449
H	-1.5833172204	-0.1761701067	-0.9700694658	 0.271138
H	 0.5007200056	-1.3156753734	-1.7477451089	 0.090572
H	 1.905341217	-0.3172996495	-1.3059771448	 0.11293
H	 1.0247237824	-2.8034754835	 0.1975370431	 0.065114
H	 2.9515969466	-2.3021407963	 1.6671495595	 0.06462
H	 4.561901634	-1.0772082032	 0.5724842208	 0.28254
H	 2.2311775642	-0.2709494246	 2.7960008405	 0.097762
H	 2.4252663094	 0.6844731164	 1.3152675217	 0.098788
H	-0.0539796578	-0.9685931059	 2.0036919162	 0.070277
62.2923	177.1329	217.3508	235.8842	257.5619	302.186	338.8715	354.5738	388.5324	418.6558	455.528	535.418	588.204	716.7071	746.1986	780.975	835.141	882.0089	908.8034	940.19	955.4935	970.4675	1013.7106	1035.7197	1071.8912	1093.9907	1109.4505	1134.2902	1174.9106	1183.7811	1200.0848	1220.6538	1242.7038	1253.3591	1265.6032	1290.089	1323.366	1332.7502	1372.2775	1405.6112	1421.2217	1466.7136	1476.538	1490.6908	1493.6781	2987.2765	3022.7213	3060.7427	3064.2056	3087.4231	3105.3797	3110.5724	3115.3855	3120.735	3126.6194	3791.6907	3817.5517
CC1(O)CC2C(O)CC12	C[C@@]1(O)C[C@H]2[C@@H](O)C[C@@H]12	
InChI=1S/C7H12O2/c1-7(9)3-4-5(7)2-6(4)8/h4-6,8-9H,2-3H2,1H3	InChI=1S/C7H12O2/c1-7(9)3-4-5(7)2-6(4)8/h4-6,8-9H,2-3H2,1H3/t4-,5-,6+,7-/m1/s1
