18
gdb 29283	4.48131	1.02771	0.87863	0.8556	81.41	-0.1627	0.0574	0.2201	1318.6132	0.149274	-398.121379	-398.112772	-398.111828	-398.154886	32.649	
N	 0.0736198525	 1.3418906612	 0.5670567882	-0.607313
C	 0.0084589556	 0.0013166923	 0.1313554595	 0.266879
C	-1.0323009478	-0.6149061257	-0.5227832545	-0.17818
N	-0.7035036568	-1.9583597286	-0.6536617598	-0.311915
C	 0.5295893202	-2.1853255526	-0.1133277415	 0.359052
C	 1.0030027978	-0.9923958267	 0.3934376152	-0.303434
N	 1.1022297173	-3.4635198703	-0.2172652719	-0.168468
C	 2.1034728538	-3.8417416792	 0.7693968824	-0.218946
C	 0.7563310521	-4.4703759777	 0.8024756171	-0.230777
H	 1.0081454198	 1.7213963218	 0.4728272259	 0.236198
H	-0.562845937	 1.9384764512	 0.0526921301	 0.233763
H	-1.9746153491	-0.2319148002	-0.8779663913	 0.098649
H	-1.223923189	-2.6428890064	-1.1721823411	 0.255746
H	 1.9482907205	-0.8380960745	 0.8899060633	 0.079099
H	 2.9577491206	-4.386417686	 0.3787333182	 0.119621
H	 2.3305850282	-3.1293360709	 1.5582982407	 0.12644
H	 0.0845473865	-4.1624693661	 1.5996138356	 0.125267
H	 0.6074805348	-5.4774038017	 0.4250353439	 0.118319
51.1652	132.5089	176.3297	191.2133	270.6466	310.2221	364.2053	441.951	496.5838	543.4919	605.4387	651.2576	692.3062	697.2571	749.4133	807.1686	820.5788	871.3846	919.6401	990.4173	1010.4083	1039.6779	1103.7623	1108.4044	1119.6135	1133.9528	1156.047	1177.8574	1194.1753	1276.1948	1298.4693	1353.4709	1454.1617	1484.4929	1489.1524	1512.7813	1567.3651	1638.0813	1659.2789	3109.6809	3113.6406	3193.5438	3208.0658	3249.3108	3266.0314	3521.2159	3608.2986	3693.5063
NC1=CNC(=C1)N1CC1	Nc1c[nH]c(c1)N1CC1	
InChI=1S/C6H9N3/c7-5-3-6(8-4-5)9-1-2-9/h3-4,8H,1-2,7H2	InChI=1S/C6H9N3/c7-5-3-6(8-4-5)9-1-2-9/h3-4,8H,1-2,7H2
