16
gdb 36423	4.90394	0.99705	0.90719	4.5913	68.77	-0.2659	0.0298	0.2956	1252.1224	0.124308	-437.874063	-437.866313	-437.865369	-437.907099	28.749	
N	 0.1741028587	-1.2638052611	-0.2331429241	-0.300388
C	 0.1327816888	-0.11025168	-0.2704174485	 0.263675
C	 0.0764238018	 1.3476739224	-0.3032724063	-0.360609
C	 1.4393245636	 1.9926976234	-0.0561274148	 0.223587
O	 2.3102878043	 1.7272918554	-1.139408607	-0.264108
C	 3.1601630613	 2.8504734226	-1.234403856	 0.062586
C	 2.5973158818	 4.0302060931	-1.9939878361	-0.322266
C	 2.4753845154	 3.9498069379	-0.4896432162	 0.057155
O	 1.2695307216	 3.3991603565	-0.0011363324	-0.272413
H	-0.2933133067	 1.685670685	-1.2757247965	 0.163981
H	-0.618101272	 1.7015164637	 0.4651406383	 0.167215
H	 1.8845230902	 1.6275446883	 0.8846303753	 0.094846
H	 4.2207635541	 2.6320574604	-1.1920883163	 0.116748
H	 3.3028354531	 4.7472971128	-2.4015330511	 0.123502
H	 1.69946593	 3.8646339227	-2.5776877088	 0.131594
H	 2.9626962241	 4.6520578169	 0.1765337707	 0.114895
59.4881	95.0002	153.6278	304.1458	316.1888	390.7305	429.4486	466.9835	546.6658	715.4947	739.0768	783.2167	805.2085	848.6933	931.8578	964.6314	1004.2548	1008.4051	1027.8332	1050.8662	1069.6231	1100.088	1110.5797	1121.5352	1149.5639	1202.4444	1231.5782	1302.5249	1305.697	1369.8687	1381.9012	1423.5068	1449.8738	1457.6493	2370.7119	2968.3818	3064.8817	3113.9701	3134.4842	3175.4895	3184.2952	3234.414
N#CCC1OC2CC2O1	N#CC[C@H]1O[C@H]2C[C@H]2O1	
InChI=1S/C6H7NO2/c7-2-1-6-8-4-3-5(4)9-6/h4-6H,1,3H2	InChI=1S/C6H7NO2/c7-2-1-6-8-4-3-5(4)9-6/h4-6H,1,3H2/t4-,5+,6-
