14
gdb 45127	2.8794	1.71148	1.15984	6.6114	63.24	-0.2608	-0.0534	0.2074	990.6669	0.101958	-473.856689	-473.849439	-473.848495	-473.889086	27.177	
O	-0.0144482655	-0.0426473909	 0.1275033571	-0.323347
C	 0.0028709456	 1.1621034984	 0.038210221	 0.281231
N	-1.1163655362	 1.9387775778	 0.0930878544	-0.331617
C	-1.1380550559	 3.3620767841	 0.0067755129	-0.022349
C	-0.6103633841	 4.2005812917	 1.1634691904	-0.33055
C	 0.19280314	 4.0295691181	-0.0978236342	 0.103655
O	 1.3732858111	 3.2640118126	-0.1032034518	-0.225769
C	 1.356182895	 1.903970012	-0.1249733383	 0.328892
O	 2.3787362107	 1.3001989126	-0.2310160539	-0.274147
H	-1.9739227681	 1.4401059264	 0.2888760619	 0.26204
H	-1.9534503277	 3.7544249651	-0.5928322531	 0.124179
H	-1.055711864	 5.169399049	 1.3587344251	 0.133876
H	-0.2752738662	 3.6533090294	 2.0375776086	 0.142158
H	 0.3042690253	 4.8765717136	-0.7645635501	 0.131749
70.0438	75.4673	314.6539	352.8419	404.3016	427.5963	478.9319	520.4633	551.8292	609.0847	696.48	741.7845	811.3778	819.9557	849.8407	927.0096	1026.3799	1045.3817	1069.012	1093.0704	1134.6056	1148.3958	1203.4339	1253.7722	1370.4072	1388.8459	1424.6514	1459.6398	1494.1115	1817.2505	1869.1338	3140.6573	3154.0916	3181.5535	3237.6172	3590.5512
O=C1NC2CC2OC1=O	O=C1N[C@H]2C[C@H]2OC1=O	
InChI=1S/C5H5NO3/c7-4-5(8)9-3-1-2(3)6-4/h2-3H,1H2,(H,6,7)	InChI=1S/C5H5NO3/c7-4-5(8)9-3-1-2(3)6-4/h2-3H,1H2,(H,6,7)/t2-,3+/m0/s1
