13
gdb 129029	3.43822	1.42221	1.04213	0.5213	73.44	-0.2605	-0.0927	0.1678	1053.3434	0.090595	-448.901726	-448.894505	-448.893561	-448.934184	26.554	
N	-0.0107243944	 1.2264896006	 0.6465867643	-0.445938
C	-0.0070031746	 0.0917578207	 0.0663609711	 0.31882
C	-1.2922995762	-0.5771207353	-0.1643524314	-0.058183
C	-1.5856827203	-1.4679138962	-1.1159722792	-0.158262
C	-0.6994034006	-1.9411532808	-2.1843558146	 0.415142
O	-1.0907822653	-2.6316628124	-3.100866057	-0.333258
N	 0.6720116067	-1.5966219118	-2.1661923237	-0.284608
N	 1.5603940572	-1.2189200552	-1.1893304334	-0.051189
N	 1.26611261	-0.5147080626	-0.2081153775	-0.215048
H	 0.9559347858	 1.537968614	 0.7837130696	 0.242329
H	-2.0703298813	-0.2543368245	 0.5203605706	 0.148014
H	-2.5890910341	-1.8695111518	-1.2002003231	 0.143016
H	 1.169482877	-2.0891293648	-2.8985824658	 0.279164
51.4518	110.112	268.7504	349.4112	374.5056	410.8511	443.3329	533.9582	623.4536	688.0786	717.0016	760.8175	769.7918	855.8921	885.8392	912.5539	962.7026	1030.6105	1047.5158	1075.3533	1193.4572	1278.8806	1362.859	1400.227	1445.8633	1633.0591	1668.5328	1712.5947	1783.5316	3187.1143	3211.1655	3436.4687	3580.9689
N=C1C=CC(=O)NN=N1	[NH][C]1C=CC(=O)NN=N1	
InChI=1S/C4H4N4O/c5-3-1-2-4(9)7-8-6-3/h1-2H,(H2,5,6,7,9)	InChI=1S/C4H4N4O/c5-3-1-2-4(9)7-8-6-3/h1-2H,(H2,5,6,7,9)
