19
gdb 22705	2.33916	1.37663	1.04091	1.9542	80.46	-0.2389	0.0252	0.2641	1219.8552	0.15844	-419.087094	-419.078188	-419.077244	-419.120763	33.585	
C	 0.0377502601	 1.547710853	 0.0244985955	-0.383207
C	 0.0109269058	 0.0160563082	-0.0486369425	-0.32531
C	 0.758871009	-0.5157835595	-1.2366682169	 0.242374
C	 0.9595744547	-1.9946313859	-1.7265218679	-0.291488
C	 1.6071032605	-1.0820407252	-2.8152379132	-0.126739
N	 0.4256798573	-0.1149915425	-2.692221143	-0.357411
C	 2.2049712178	-0.3057207922	-1.6571791706	 0.544358
N	 3.2453356969	 0.2079509495	-1.1752572872	-0.333363
O	 4.350304379	 0.0492832144	-2.047410556	-0.398301
H	 1.0645087377	 1.9112125156	 0.1224266658	 0.141661
H	-0.3851105837	 1.9850908711	-0.8840251368	 0.135643
H	-0.5380251266	 1.9060201393	 0.8825511078	 0.109296
H	 0.4545446609	-0.4170588577	 0.8562739106	 0.114599
H	-1.0237860116	-0.3475569743	-0.0911275079	 0.101425
H	 1.6056404556	-2.6560156575	-1.1408933114	 0.111009
H	 0.0385340133	-2.4946685256	-2.0447794365	 0.098755
H	 2.0441834253	-1.3499856134	-3.7734658543	 0.105497
H	-0.4209223031	-0.6294765405	-2.9645693774	 0.205794
H	 5.048023591	 0.5041290932	-1.563960308	 0.305409
78.1272	132.5586	150.7696	188.6782	224.8055	291.37	315.1473	371.7274	430.0711	500.061	576.3614	656.3568	721.8737	749.0315	777.6421	798.9267	853.878	899.6706	929.6656	949.6275	991.4931	1012.6409	1048.3017	1071.6806	1101.566	1117.5585	1148.2377	1178.8139	1202.6432	1250.5324	1288.0413	1306.1584	1338.4488	1386.5462	1411.958	1422.4292	1477.5686	1496.1858	1498.1611	1510.4455	1843.3073	3025.0757	3032.1558	3046.6316	3060.3601	3105.2074	3118.8561	3125.0842	3161.2397	3352.8785	3820.6558
CCC12CC(N1)C2=NO	CC[C@@]12C[C@@H](N1)C2=NO	
InChI=1S/C6H10N2O/c1-2-6-3-4(7-6)5(6)8-9/h4,7,9H,2-3H2,1H3	InChI=1S/C6H10N2O/c1-2-6-3-4(7-6)5(6)8-9/h4,7,9H,2-3H2,1H3/t4-,6+/m1/s1
