19
gdb 75562	2.14394	1.59821	1.03945	3.5966	79.29	-0.2367	-0.0236	0.2131	1187.7098	0.158292	-423.039723	-423.030937	-423.029993	-423.073618	32.482	
C	-0.122358876	 1.5320294795	 0.0471719945	-0.491191
C	 0.0234273092	 0.0339607535	-0.0062543877	 0.276192
C	 0.1010213434	-0.6450099814	-1.1521245455	-0.156959
C	 0.1516668729	-2.1469137054	-1.2085878061	-0.257841
C	-0.3738651733	-2.7131177047	 0.1079499537	-0.076532
O	 0.2742189428	-2.0967373205	 1.2083955155	-0.245443
C	 0.0383739674	-0.7208066581	 1.3199260973	-0.037679
C	 1.087803114	-0.1414608911	 2.2717741389	 0.145752
O	 2.030294216	-0.743639568	 2.7033862339	-0.228934
H	 0.7628600482	 2.0239901765	 0.467699611	 0.135131
H	-0.2824621834	 1.9381532288	-0.9547943746	 0.128841
H	-0.9740790734	 1.830491416	 0.6717011261	 0.125804
H	 0.0964987967	-0.0985093941	-2.0925956658	 0.086561
H	-0.4545857353	-2.5180319038	-2.0441976667	 0.104389
H	 1.1768776054	-2.498199343	-1.3864878003	 0.123233
H	-1.4642420943	-2.5648773713	 0.1703429963	 0.090553
H	-0.1696428726	-3.7825377744	 0.2039994829	 0.112581
H	-0.9352782122	-0.5269420785	 1.8225607846	 0.086088
H	 0.8884512446	 0.91554296	 2.5574466419	 0.079456
55.9127	94.9314	175.8087	208.0131	265.781	299.0548	322.3502	347.7064	449.3767	473.6313	536.4611	646.4554	713.7831	737.4912	843.1384	875.2432	922.3481	962.0098	989.4275	1019.8288	1065.0792	1074.9806	1079.4219	1095.3114	1162.8782	1181.2109	1233.0519	1269.1178	1296.7815	1333.2591	1363.2357	1365.5765	1408.6507	1418.1352	1430.1477	1471.1577	1482.3337	1493.4871	1500.6406	1735.2873	1850.3437	2855.7245	2883.7068	2975.3053	3018.4005	3020.1449	3054.6831	3067.7598	3095.1172	3113.4689	3148.8754
CC1=CCCOC1C=O	CC1=CCCO[C@H]1C=O	
InChI=1S/C7H10O2/c1-6-3-2-4-9-7(6)5-8/h3,5,7H,2,4H2,1H3	InChI=1S/C7H10O2/c1-6-3-2-4-9-7(6)5-8/h3,5,7H,2,4H2,1H3/t7-/m0/s1
