22
gdb 112791	2.02808	1.31918	0.93217	3.9586	84.57	-0.2391	0.0226	0.2617	1364.8512	0.193264	-404.376191	-404.366172	-404.365228	-404.411678	36.282	
C	 0.0838980826	 1.3069334218	-0.4857701764	-0.390986
C	-0.0588845078	-0.137198649	 0.0012629542	-0.179683
C	 0.7355778313	-0.4536016423	 1.2650490616	 0.056688
C	 0.7690419189	-1.9446241756	 1.714293167	-0.300155
C	 2.3220622514	-1.9045660214	 1.6149644374	 0.073563
C	 3.010758128	-2.8848992301	 0.6787584627	-0.401575
N	 2.2063549865	-0.5215122704	 1.1146599157	-0.060243
C	 3.1605834807	 0.4380809653	 1.1950778311	 0.119767
O	 4.3365659148	 0.2175530217	 1.4088115264	-0.334614
H	 1.1192092478	 1.5332050024	-0.759395125	 0.128485
H	-0.5365488623	 1.4851142569	-1.3690458914	 0.119447
H	-0.2235520514	 2.0206308122	 0.2867399038	 0.116296
H	-1.1140381104	-0.3536793973	 0.2149910618	 0.102258
H	 0.2499546062	-0.8307033703	-0.7903983662	 0.102037
H	 0.4386053322	 0.2319221123	 2.070198103	 0.083745
H	 0.3666566357	-2.1427274393	 2.708042964	 0.112994
H	 0.3008057742	-2.6226244315	 0.9966697415	 0.108709
H	 2.8181265776	-1.9186515732	 2.5926680171	 0.094937
H	 2.5374607361	-2.8838217456	-0.3084374636	 0.112852
H	 4.0628397094	-2.6136950353	 0.5601905166	 0.149737
H	 2.9565085648	-3.8997267396	 1.087478904	 0.115884
H	 2.7548497239	 1.4571273082	 1.0308342748	 0.069859
49.6348	95.048	100.881	155.1347	214.1405	239.0904	248.1486	285.3047	336.9838	390.3988	404.9367	462.2127	578.716	692.5314	788.0426	804.4805	851.0353	898.8089	922.0053	974.2449	1013.1154	1021.6176	1034.0933	1093.7117	1108.4152	1119.731	1163.9248	1181.118	1207.9234	1257.3355	1269.8527	1291.9802	1304.475	1349.0481	1376.5542	1377.8932	1398.2929	1408.3633	1413.1947	1431.5057	1476.0726	1485.69	1491.9671	1499.3698	1500.9906	1507.2634	1780.2604	2924.6572	3009.2139	3020.9526	3034.5422	3034.854	3035.8753	3060.915	3075.7582	3102.9034	3105.3058	3110.7626	3126.3759	3135.3568
CCC1CC(C)N1C=O	CC[C@H]1C[C@@H](C)N1C=O	
InChI=1S/C7H13NO/c1-3-7-4-6(2)8(7)5-9/h5-7H,3-4H2,1-2H3	InChI=1S/C7H13NO/c1-3-7-4-6(2)8(7)5-9/h5-7H,3-4H2,1-2H3/t6-,7+/m1/s1
