13
gdb 130655	3.27938	1.80985	1.17692	6.4859	66.2	-0.2388	-0.0569	0.182	940.8602	0.092108	-448.937998	-448.931541	-448.930597	-448.968979	24.568	
O	 0.0147708788	-0.0211798793	-0.0188842786	-0.304397
C	-0.0156403901	 1.1726687122	-0.0131985318	 0.42913
C	-1.2474734685	 2.1029329189	 0.0226482336	-0.300684
N	-0.7137080118	 3.4646739303	-0.1300085495	-0.423807
C	 0.6601751299	 3.378940964	-0.03606915	 0.399876
C	 1.8217624408	 4.1024087447	 0.0075499534	-0.189565
N	 2.863131927	 3.196692864	 0.0265919566	-0.152771
N	 2.4395830727	 1.9792897665	-0.0050764406	-0.143866
N	 1.0635076921	 2.0742860857	-0.0365948475	-0.037339
H	-1.9334599296	 1.8363307474	-0.7864817797	 0.166304
H	-1.7684493393	 1.9555499112	 0.9758019202	 0.160748
H	-1.1731935741	 4.2077682305	 0.3738062988	 0.266158
H	 1.9949065122	 5.1640040641	 0.0271987752	 0.130214
139.2789	174.3079	301.9986	305.5092	490.9888	549.3881	555.3486	628.8426	676.5873	696.7807	721.1356	783.7183	792.4091	983.0033	985.5742	1022.5603	1058.4841	1094.0158	1134.3456	1195.8204	1256.6975	1283.0723	1299.489	1349.997	1413.6956	1469.0594	1480.8376	1643.4237	1888.1555	3047.3938	3096.8694	3292.0789	3619.875
O=C1CNC2=CN=NN12	O=C1CNc2cnnn12	
InChI=1S/C4H4N4O/c9-4-2-5-3-1-6-7-8(3)4/h1,5H,2H2	InChI=1S/C4H4N4O/c9-4-2-5-3-1-6-7-8(3)4/h1,5H,2H2
