16
gdb 34691	4.0554	1.53346	1.40574	1.8854	75.97	-0.2299	0.0473	0.2772	934.4533	0.125275	-363.511584	-363.505037	-363.504093	-363.542372	27.161	
C	 0.0520955361	-1.2029982255	 0.0406078404	-0.455721
C	 0.0316180793	-0.0018703925	 0.0234158882	 0.352484
C	-0.0203149005	 1.4547909336	 0.0174772514	-0.175313
C	-0.5898712893	 2.0622142908	 1.2983446883	-0.078747
C	 0.5417858714	 2.2751274592	 2.2728633977	-0.083787
C	-0.0070631794	 3.4421279718	 1.4724371029	-0.115835
C	 1.2651642117	 3.4049254115	 0.5767431889	-0.069699
C	 1.8030272694	 2.2610941905	 1.3638940884	-0.057771
N	 1.3304191642	 2.0589488025	-0.015887667	-0.110784
H	 0.0769558655	-2.264548991	 0.0475818208	 0.195762
H	-0.5691240713	 1.8038114377	-0.8651767201	 0.110365
H	-1.5859663633	 1.8301457702	 1.6521942818	 0.103115
H	 0.4974651099	 2.0759631086	 3.333185206	 0.095099
H	-0.5539440093	 4.3152664225	 1.7967956469	 0.095534
H	 1.7445197774	 4.2360111414	 0.0761595708	 0.097426
H	 2.8096325584	 1.9721810187	 1.6348625047	 0.097872
120.5727	155.4749	348.1305	462.552	506.7178	594.4612	625.5157	648.5662	712.9515	738.599	776.4816	791.347	803.7178	818.3775	872.7792	898.0118	918.8669	954.3826	958.7692	982.2053	1009.1759	1015.5214	1035.3316	1041.8008	1063.816	1088.7707	1199.8386	1206.457	1243.7425	1254.7511	1262.6035	1299.1746	1341.6757	1385.6197	2242.0392	3043.7684	3193.6188	3206.2067	3207.453	3221.1284	3233.7828	3504.6053
C#CC1C2C3C2C2C3N12	C#C[C@H]1[C@H]2[C@@H]3[C@H]2[C@H]2[C@@H]3N12	
InChI=1S/C8H7N/c1-2-3-4-5-6(4)8-7(5)9(3)8/h1,3-8H	InChI=1S/C8H7N/c1-2-3-4-5-6(4)8-7(5)9(3)8/h1,3-8H/t3-,4-,5+,6-,7+,8-,9?/m0/s1
