21
gdb 91129	2.75836	1.5669	1.38244	1.7194	80.84	-0.2389	0.0695	0.3085	1049.4173	0.184228	-387.030683	-387.02299	-387.022046	-387.062739	30.995	
C	-0.535792707	 1.4970483388	 0.0891340578	-0.426331
C	-0.0503083603	 0.055515374	 0.0079489006	 0.050138
C	 1.1089734674	-0.3687268766	-0.9505851065	-0.276458
C	 1.6360004111	-1.3486652825	 0.1374441488	-0.03954
C	 2.8638282065	-0.8731588392	 0.9717666753	 0.117948
O	 3.5096420578	 0.3354523133	 0.5287465443	-0.287553
C	 2.6972007303	 1.1379320812	 1.4214897197	-0.103128
C	 1.9214771193	-0.0992091555	 1.9296295017	-0.095813
C	 0.6718459241	-0.6747690733	 1.1770770686	-0.0599
H	 0.2722149296	 2.2109532077	 0.2648584469	 0.119015
H	-1.0284570282	 1.7872082503	-0.8460564723	 0.116145
H	-1.2670638501	 1.6183758394	 0.8966599234	 0.113369
H	-0.9192026603	-0.5706903688	-0.2312010905	 0.075409
H	 0.7980116225	-0.8253216689	-1.8927602772	 0.094046
H	 1.8282496891	 0.4239568017	-1.1698933535	 0.120355
H	 1.5879761097	-2.4125442825	-0.098697592	 0.06055
H	 3.5820121147	-1.6386066792	 1.2802665387	 0.072025
H	 3.3180210872	 1.6072979531	 2.1950597897	 0.103798
H	 2.1494309348	 1.9203423133	 0.8899066659	 0.107486
H	 1.9188243986	-0.2411151972	 3.0101433406	 0.076004
H	 0.0350703933	-1.261882499	 1.8426240501	 0.062433
91.3272	177.8804	200.4411	274.953	282.814	350.3786	508.8019	547.1059	592.5153	681.8507	716.542	799.5269	821.5522	850.2297	866.5634	892.5732	910.1707	934.6375	966.9917	995.0377	1014.1052	1039.8151	1055.2379	1091.5408	1120.8644	1126.1229	1136.6323	1158.0584	1184.0739	1196.9236	1213.4454	1230.2654	1253.5402	1265.7381	1294.6251	1311.6865	1326.0513	1332.2358	1366.0693	1382.4942	1410.3944	1491.4307	1493.7645	1496.1491	1525.3619	3014.9496	3020.369	3030.9704	3058.9717	3066.3352	3072.7473	3086.4163	3088.2553	3097.0516	3109.8051	3119.3177	3123.1711
CC1CC2C3OCC3C12	C[C@H]1C[C@H]2[C@H]3OC[C@H]3[C@@H]12	
InChI=1S/C8H12O/c1-4-2-5-7(4)6-3-9-8(5)6/h4-8H,2-3H2,1H3	InChI=1S/C8H12O/c1-4-2-5-7(4)6-3-9-8(5)6/h4-8H,2-3H2,1H3/t4-,5+,6-,7-,8+/m0/s1
