16
gdb 43400	2.55936	1.83377	1.19971	5.623	73.49	-0.2207	-0.038	0.1827	1005.6023	0.125752	-437.893696	-437.886145	-437.885201	-437.925721	28.979	
O	 0.053055104	-0.0816113537	 0.0771727854	-0.357079
C	 0.0013224168	 1.1365760713	 0.0577776473	 0.327602
C	-1.2141763335	 1.9167856148	-0.0529870846	-0.237633
C	-1.1762473454	 3.2740852693	-0.1372180883	 0.026883
N	-0.0458567252	 4.0155756621	-0.0193762068	-0.294105
C	 1.1489228832	 3.3995406965	 0.5418559413	-0.262475
C	 1.2857576562	 1.9709230632	 0.0613122012	 0.298382
C	 2.5741701206	 1.2800973917	 0.1390802793	-0.224868
O	 2.0925399455	 1.7723324563	-1.1128982521	-0.264597
H	-2.1527995713	 1.3892815956	-0.1601902625	 0.105689
H	-2.0798420945	 3.8464703524	-0.3267573753	 0.126741
H	-0.1426805188	 5.0124889965	 0.0758765871	 0.257307
H	 2.0310347901	 3.9724626559	 0.2455327808	 0.129675
H	 1.0871972668	 3.3949295952	 1.6427911444	 0.11913
H	 3.4396055662	 1.8031499281	 0.54583348	 0.106039
H	 2.5611005991	 0.1988575047	 0.2476038029	 0.143311
85.9372	170.8466	253.777	296.2107	333.9813	359.74	425.8723	482.4388	522.5462	570.6136	661.2688	735.761	806.6934	828.7421	849.8892	914.5996	977.3717	987.8635	991.5326	1020.992	1098.2156	1132.6087	1163.565	1188.6066	1238.4388	1283.336	1303.7872	1326.0803	1409.8519	1443.3594	1473.0594	1510.1206	1541.2349	1659.0432	1754.6207	2970.2946	3085.3146	3097.7348	3176.0266	3193.3753	3222.4688	3650.9588
O=C1C=CNCC11CO1	O=C1C=CNC[C@]21CO2	
InChI=1S/C6H7NO2/c8-5-1-2-7-3-6(5)4-9-6/h1-2,7H,3-4H2	InChI=1S/C6H7NO2/c8-5-1-2-7-3-6(5)4-9-6/h1-2,7H,3-4H2/t6-/m1/s1
