18
gdb 26286	3.64081	1.2849	0.96238	2.3715	85.59	-0.2054	-0.0315	0.1739	1211.5334	0.149331	-398.173595	-398.164974	-398.16403	-398.207534	30.892	
C	 0.1307854535	 1.4203481255	 0.038172328	-0.335889
N	-0.0923446043	-0.0113856893	-0.0046727767	-0.131321
C	-0.0061197014	-0.7370715701	 1.2527795963	-0.342665
C	-0.0324398171	-0.6835243857	-1.2001573551	 0.419666
C	 0.1115628051	-0.0081248132	-2.4419683169	-0.098841
N	 0.1245503813	-0.652942528	-3.5974012682	-0.230503
C	 0.0055141095	-1.9863493294	-3.5609735868	-0.048417
C	-0.1110748573	-2.6541076515	-2.3504755187	-0.010212
N	-0.1255228685	-2.0220712172	-1.1783194841	-0.335532
H	 1.1630757628	 1.7017500586	-0.2201075202	 0.12459
H	-0.5466249276	 1.9481656046	-0.6411059101	 0.138911
H	-0.0724817823	 1.7755038838	 1.0501701357	 0.130241
H	-0.615662782	-0.2306150954	 2.0076185045	 0.120251
H	-0.3764699663	-1.7497024413	 1.1074953091	 0.167242
H	 1.0273467509	-0.7966049717	 1.6260029876	 0.11711
H	 0.2234936741	 1.0695523322	-2.4888559571	 0.102239
H	 0.0166446557	-2.5177680276	-4.5071929547	 0.105182
H	-0.190786186	-3.7386636142	-2.3164557227	 0.107948
60.6247	91.235	129.7308	156.8284	231.6757	275.0005	391.6018	437.7282	489.643	547.3769	562.0242	636.7739	781.8741	798.0095	852.0659	920.1689	975.5152	977.8372	1009.7906	1087.0627	1089.4638	1132.2871	1166.0775	1187.5274	1215.2379	1256.7658	1281.6917	1352.8126	1400.1224	1437.2298	1452.251	1478.7428	1490.7054	1495.7156	1505.7039	1518.9809	1551.0725	1571.7118	1619.6174	2987.3605	2994.8319	3066.9795	3074.6098	3125.5476	3147.2403	3172.0927	3179.3778	3184.3367
CN(C)C1=CN=CC=N1	CN(C)c1cnccn1	
InChI=1S/C6H9N3/c1-9(2)6-5-7-3-4-8-6/h3-5H,1-2H3	InChI=1S/C6H9N3/c1-9(2)6-5-7-3-4-8-6/h3-5H,1-2H3
