22
gdb 102534	1.65801	1.33229	1.03801	4.6304	79.61	-0.2315	0.0379	0.2694	1341.4314	0.191957	-441.504351	-441.493122	-441.492178	-441.541391	39.02	
C	-0.2320666983	 1.5254532574	-0.0661474814	-0.391412
C	-0.1764084635	 0.0016093965	 0.058020245	-0.180506
C	 0.7765267213	-0.4935188164	 1.1633309753	 0.014358
C	 0.7128357001	-2.0168728009	 1.3388136616	-0.084587
O	 1.051115113	-2.6297398005	 0.1064323447	-0.410774
N	 2.1589469692	-0.0213128606	 1.0142874199	-0.041512
C	 2.8305139735	 0.5021717993	 2.1933316347	-0.35009
C	 2.8838630019	-0.210607022	-0.1299440509	 0.14889
O	 4.0583232464	 0.0757262878	-0.265395861	-0.35704
H	 0.746355697	 1.9409353687	-0.323074969	 0.13325
H	-0.9388679676	 1.8255633412	-0.8452692227	 0.11746
H	-0.555234386	 1.9901423664	 0.8724509205	 0.110602
H	-1.1739851945	-0.3862886078	 0.2987181454	 0.098447
H	 0.0937742171	-0.4516586589	-0.8993533054	 0.127273
H	 0.42459283	-0.0634494901	 2.1090483637	 0.085014
H	 1.4084552597	-2.3140327061	 2.137463006	 0.094334
H	-0.3042989723	-2.2969321538	 1.6576716833	 0.088817
H	 1.2229088558	-3.5625087227	 0.2608081991	 0.295383
H	 2.8711510045	-0.2446476312	 2.9969433742	 0.116507
H	 3.8474902602	 0.7685686161	 1.9067573743	 0.168934
H	 2.3117519873	 1.3896590534	 2.5738392444	 0.121707
H	 2.2850279449	-0.6552164858	-0.9386040617	 0.094944
44.0451	76.7941	108.3374	117.6174	151.5145	198.0529	205.4951	235.881	263.5318	305.4553	322.5191	349.909	392.8875	478.7554	586.1235	693.6494	795.8834	838.8103	883.9554	948.3744	1009.0244	1020.1062	1032.814	1070.0601	1111.1139	1127.8464	1142.9874	1158.6901	1219.7294	1244.2784	1270.8214	1282.4901	1327.2236	1349.7872	1382.428	1411.9624	1426.1493	1446.6525	1451.0943	1461.0023	1493.9462	1497.2684	1502.0906	1508.0262	1512.5305	1518.9412	1778.358	2969.029	3010.6223	3012.2398	3024.4181	3033.2951	3034.7965	3039.0713	3064.4595	3088.4474	3108.095	3117.7608	3159.3773	3842.6892
CCC(CO)N(C)C=O	CC[C@@H](CO)N(C)C=O	
InChI=1S/C6H13NO2/c1-3-6(4-8)7(2)5-9/h5-6,8H,3-4H2,1-2H3	InChI=1S/C6H13NO2/c1-3-6(4-8)7(2)5-9/h5-6,8H,3-4H2,1-2H3/t6-/m0/s1
