21
gdb 73215	2.09119	1.84743	1.36359	2.7494	81.24	-0.2313	-0.0144	0.2169	1063.9668	0.183286	-387.123147	-387.11468	-387.113736	-387.156196	33.034	
C	-0.1102919042	 1.5358966159	 0.0137142152	-0.472873
C	 0.0240132063	 0.0215617303	 0.0283573013	 0.230964
C	-1.2619380529	-0.8025088522	 0.3839528206	-0.265176
C	-0.4471912019	-1.6256875663	 1.4179906861	-0.230587
C	 0.7877601504	-0.7049811616	 1.1846890485	-0.046275
C	 2.03463957	-1.3680476913	 0.5686707613	-0.238179
C	 1.6652250535	-1.6201807364	-0.9032806127	-0.323931
C	 0.6758952314	-0.504217392	-1.2568263728	 0.365679
O	 0.4485091221	-0.0898031653	-2.3658906738	-0.329384
H	 0.869576207	 2.0248633292	-0.0245395026	 0.115307
H	-0.6723897744	 1.8540108196	-0.8696447121	 0.138597
H	-0.6309682497	 1.8915141003	 0.9085851298	 0.108293
H	-2.0286170056	-0.1695329044	 0.8385475861	 0.106948
H	-1.7241885882	-1.356391099	-0.4375190398	 0.108439
H	-0.8454156986	-1.6241396043	 2.4348217345	 0.103173
H	-0.2782425966	-2.6668391345	 1.1278010851	 0.099165
H	 1.0323967027	-0.0788990492	 2.0454615929	 0.066813
H	 2.884848381	-0.6780283552	 0.6219485867	 0.105269
H	 2.3248543889	-2.279456912	 1.1003908502	 0.102458
H	 2.506885897	-1.6289075568	-1.5986801115	 0.126064
H	 1.1406115922	-2.5771871747	-1.0272288031	 0.129237
58.6043	156.9304	195.7233	217.0682	256.9346	285.1263	365.8126	470.4681	499.2679	578.9883	619.0885	664.6106	716.6727	792.5648	805.6557	818.5246	891.3118	900.9335	952.3467	965.8658	977.2891	1006.593	1051.4358	1056.8577	1116.9091	1144.873	1163.1733	1175.6371	1209.3798	1220.9244	1248.3905	1252.0142	1271.0123	1287.4708	1320.5547	1328.8365	1352.8528	1405.7856	1455.3127	1480.9006	1488.4269	1491.6154	1495.4907	1502.0233	1832.52	3029.3156	3029.5911	3036.4006	3053.6588	3059.326	3079.	3083.0006	3094.7225	3098.4598	3110.7151	3113.5993	3116.7284
CC12CCC1CCC2=O	C[C@]12CC[C@H]1CCC2=O	
InChI=1S/C8H12O/c1-8-5-4-6(8)2-3-7(8)9/h6H,2-5H2,1H3	InChI=1S/C8H12O/c1-8-5-4-6(8)2-3-7(8)9/h6H,2-5H2,1H3/t6-,8+/m1/s1
