21
gdb 81472	3.42014	1.53588	1.47455	1.5116	80.84	-0.2369	0.0757	0.3126	1008.8785	0.185984	-387.034834	-387.027964	-387.027019	-387.065564	29.745	
C	-0.0091014912	 1.5742129988	 0.0175696722	-0.432165
C	-0.0408351467	 0.0502734166	-0.0008778456	 0.042249
C	 1.1472956801	-0.6093668847	-0.7571973201	 0.068805
O	 1.9594576327	-0.3375325946	 0.4296950809	-0.289082
C	 0.7296656867	-0.6240023887	 1.1698000634	 0.068801
C	 0.5340815698	-2.1960389661	 1.1695721553	-0.0567
C	 1.7432226871	-2.7728841113	 0.3643338401	-0.189003
C	 0.9741091126	-2.180618017	-0.8607650343	-0.056701
C	-0.3069513876	-2.6014409948	-0.07869042	-0.225045
H	 0.9947801974	 1.943682945	 0.2380325102	 0.135135
H	-0.3225510974	 1.9800417116	-0.9508630481	 0.110304
H	-0.6967601418	 1.9669452763	 0.7749956282	 0.110303
H	-1.051333021	-0.2891618634	-0.22245705	 0.064029
H	 1.559121695	-0.1471939944	-1.6576720776	 0.0719
H	 0.7303056871	-0.1762402875	 2.1665787634	 0.0719
H	 0.27988488	-2.5953597519	 2.153189682	 0.058504
H	 2.7418300059	-2.4065434323	 0.5835406713	 0.11447
H	 1.7230906439	-3.8646465039	 0.3516785639	 0.08697
H	 1.1511757962	-2.5648263649	-1.8670491585	 0.058505
H	-0.4468967593	-3.6849351422	-0.1172503899	 0.092257
H	-1.2660618196	-2.1275180707	-0.282954387	 0.094564
213.4844	248.4867	250.0387	297.5691	459.8074	507.5944	549.6213	550.3728	606.6913	777.1568	797.0778	828.1315	845.0426	853.4868	874.5722	875.5234	893.3803	898.1396	924.7815	993.5034	1002.7291	1042.3866	1042.8685	1060.673	1091.679	1100.2725	1103.876	1113.417	1156.1214	1196.7613	1227.4679	1236.4388	1246.4068	1247.9433	1277.0656	1301.6857	1310.3371	1314.6632	1336.8729	1401.6162	1406.7103	1484.5173	1493.3845	1507.8298	1538.6144	3030.9229	3065.9293	3075.7719	3077.8528	3083.0938	3087.854	3092.7581	3097.1444	3103.4763	3125.6319	3138.018	3172.4501
CC1C2OC1C1CC2C1	C[C@H]1[C@H]2O[C@@H]1[C@@H]1C[C@H]2C1	
InChI=1S/C8H12O/c1-4-7-5-2-6(3-5)8(4)9-7/h4-8H,2-3H2,1H3	InChI=1S/C8H12O/c1-4-7-5-2-6(3-5)8(4)9-7/h4-8H,2-3H2,1H3/t4-,5-,6+,7+,8-
