19
gdb 47810	2.15535	1.95649	1.19794	2.345	75.56	-0.2263	-0.0282	0.1981	1056.6974	0.161334	-419.178695	-419.170796	-419.169852	-419.21121	30.67	
O	-0.0344531363	-0.1048287537	-0.1641847304	-0.291437
C	-0.0315601944	 1.0946031948	-0.0370257577	 0.37109
C	-1.3214153457	 1.9228437642	 0.0299933741	-0.248494
N	-1.6422289099	 2.211857494	 1.4293328821	-0.293654
C	-0.7533060561	 3.1498255522	 2.1156602213	-0.159045
C	 0.6182253992	 2.5288527556	 2.4055583504	-0.144724
N	 1.5394865658	 2.6825742208	 1.2730689543	-0.090255
C	 2.3657932078	 1.5191988338	 0.9283745442	-0.25645
C	 1.2380381443	 1.9168698399	 0.057397479	-0.093315
H	-1.1932948355	 2.8342359866	-0.5856131285	 0.08677
H	-2.1279184889	 1.3182536097	-0.3918013198	 0.121114
H	-2.5961531158	 2.5482362545	 1.4801590198	 0.227424
H	-0.6002780711	 4.0953128948	 1.563897692	 0.092253
H	-1.2314409478	 3.3987463797	 3.0682821534	 0.104855
H	 1.0824568883	 3.0344164672	 3.2591264621	 0.106972
H	 0.458829638	 1.4756773974	 2.6884503112	 0.107579
H	 3.3900726752	 1.7349449605	 0.6380161622	 0.119583
H	 2.234157598	 0.609645881	 1.51151825	 0.128246
H	 1.4356223249	 2.4712930169	-0.8617176596	 0.111486
69.1833	166.3406	192.4254	290.6372	312.337	365.6119	402.2392	452.0115	526.4774	558.5337	640.256	713.9518	736.739	846.0328	890.4082	906.8127	954.3517	974.8175	999.6872	1028.5569	1050.3679	1092.2094	1114.29	1119.8075	1146.553	1158.6026	1177.0408	1242.2256	1268.6331	1297.0781	1319.9382	1328.8675	1380.4988	1400.2154	1414.2865	1477.1394	1488.4061	1490.6137	1497.1772	1512.6583	1821.9751	2913.488	2940.7214	2975.9857	3061.0075	3076.2542	3087.8269	3100.381	3101.8145	3189.5067	3544.6667
O=C1CNCCN2CC12	O=C1CNCCN2C[C@@H]12	
InChI=1S/C6H10N2O/c9-6-3-7-1-2-8-4-5(6)8/h5,7H,1-4H2	InChI=1S/C6H10N2O/c9-6-3-7-1-2-8-4-5(6)8/h5,7H,1-4H2/t5-,8?/m0/s1
