22
gdb 117539	2.16786	0.99461	0.71688	4.7684	83.28	-0.2827	0.0412	0.3239	1629.6063	0.191813	-404.373319	-404.362173	-404.361229	-404.410085	39.535	
C	-0.0783677185	 1.571203542	 0.0826337523	-0.38496
C	-0.0792422923	 0.0425969661	 0.0002717126	-0.181909
C	 0.7358620849	-0.4802812274	-1.1881691526	-0.193075
C	 0.7819249332	-2.0217410865	-1.2849886696	-0.142796
C	-0.5790329893	-2.5681250782	-1.3668765477	 0.300369
N	-1.6671792952	-2.9513687324	-1.4359592909	-0.343603
C	 1.6157686927	-2.5572676193	-2.4725928005	 0.11618
C	 3.056961428	-2.0474784502	-2.478474583	-0.411827
O	 1.5802783691	-3.9716003996	-2.3372361141	-0.426054
H	 0.9384221003	 1.9653745676	 0.1907195061	 0.113002
H	-0.5121183604	 2.0166177338	-0.8194296671	 0.118592
H	-0.6631324697	 1.9200151277	 0.9388570687	 0.119254
H	 0.3293058973	-0.3766955165	 0.9291591624	 0.099035
H	-1.1090366576	-0.3236091272	-0.0746202354	 0.130397
H	 0.3286024629	-0.0751013098	-2.1232703549	 0.110588
H	 1.7640579055	-0.1133437227	-1.1056686305	 0.106975
H	 1.2389564573	-2.4252152065	-0.3713955648	 0.128774
H	 1.1156467584	-2.2476762318	-3.4037042143	 0.085633
H	 3.1149113948	-0.9714881114	-2.6632835242	 0.12556
H	 3.5507330401	-2.273028338	-1.5277357036	 0.128097
H	 3.6183586363	-2.5468527358	-3.2753973014	 0.113059
H	 1.9472411121	-4.3635996438	-3.1354466275	 0.288708
57.7977	80.0987	94.5023	132.3249	149.7616	221.9702	231.2475	250.9766	267.2367	311.2787	318.0883	399.7479	427.6572	471.7775	551.4296	612.95	749.8711	818.6741	876.896	902.333	919.9727	980.19	1024.4899	1060.6363	1077.8964	1096.2003	1121.4002	1139.9628	1149.8097	1226.504	1262.5072	1299.7866	1326.2896	1332.5954	1349.5112	1378.5004	1395.324	1410.0497	1414.3042	1417.6631	1484.0825	1493.1139	1495.3048	1499.2497	1501.1623	1511.396	2356.9747	2980.0128	3021.182	3026.7983	3030.6412	3036.2891	3038.1162	3064.1135	3084.5469	3100.4648	3103.4632	3107.4226	3122.5422	3828.9697
CCCC(C#N)C(C)O	CCC[C@@H](C#N)[C@@H](C)O	
InChI=1S/C7H13NO/c1-3-4-7(5-8)6(2)9/h6-7,9H,3-4H2,1-2H3	InChI=1S/C7H13NO/c1-3-4-7(5-8)6(2)9/h6-7,9H,3-4H2,1-2H3/t6-,7+/m1/s1
