15
gdb 77277	2.52607	1.2305	1.09132	3.9767	68.68	-0.2653	0.0034	0.2686	1148.0012	0.109284	-457.718693	-457.709704	-457.70876	-457.752774	32.221	
O	-0.5669669413	 1.2887974363	 0.2709720345	-0.412903
C	-0.2551268553	-0.0470927958	 0.0915395922	 0.073652
C	-1.3712652446	-1.0400640663	-0.1332212389	 0.050457
O	-2.6812089507	-0.5607882011	-0.2386935261	-0.187012
C	-3.1942331101	 0.0507437717	 0.8654939711	 0.183201
O	-4.2994610976	 0.4947358266	 0.8767970877	-0.270527
C	-0.432186158	-0.6893691771	-1.2848409849	-0.313166
C	-0.8881190922	 0.1663298057	-2.3364071292	 0.302049
C	-1.2418676576	 0.954953651	-3.1739084833	-0.410281
H	-0.7710262667	 1.6772408498	-0.5922512164	 0.30135
H	 0.5964676728	-0.3649288781	 0.6861752028	 0.121887
H	-1.2913612289	-2.041417761	 0.2809623953	 0.119643
H	-2.488907634	 0.0653306177	 1.7127962958	 0.098416
H	 0.281157201	-1.4566641583	-1.5685214802	 0.131008
H	-1.5794217769	 1.6121535489	-3.9374011805	 0.212227
74.0172	105.6068	126.9468	179.2475	212.7323	282.9835	313.7637	346.534	390.0292	555.3623	607.885	627.069	659.2522	679.0581	737.4769	761.3114	793.1689	923.0733	1015.2959	1036.5903	1059.6354	1102.2493	1119.368	1130.439	1166.7544	1244.9597	1348.2027	1352.292	1371.8691	1419.2567	1434.3729	1874.673	2233.5173	3007.4447	3141.8753	3152.1213	3163.5082	3499.4769	3720.875
OC1C(OC=O)C1C#C	O[C@H]1[C@@H](OC=O)[C@H]1C#C	
InChI=1S/C6H6O3/c1-2-4-5(8)6(4)9-3-7/h1,3-6,8H	InChI=1S/C6H6O3/c1-2-4-5(8)6(4)9-3-7/h1,3-6,8H/t4-,5+,6-/m0/s1
