16
gdb 128225	2.76396	1.51575	0.98498	2.8667	80.41	-0.2054	-0.0387	0.1666	1147.4534	0.126262	-430.23377	-430.225543	-430.224599	-430.266838	30.36	
C	 0.0397278716	 1.3968742767	 0.1521839428	-0.329528
N	 0.1184261794	-0.033459207	-0.0133371274	-0.359902
C	 0.6148376901	-0.6447397934	-1.1035971776	 0.325278
C	 1.1246856282	-0.0487879553	-2.2297857638	-0.097758
N	 1.6144322556	-0.7489269647	-3.3050938926	-0.198366
N	 1.6226450337	-2.0158679632	-3.3164950655	-0.08119
N	 1.1212932184	-2.6588550399	-2.2088714282	-0.323835
C	 0.5978061506	-2.1093784735	-1.0586280484	 0.378246
N	 0.1308106388	-2.7178156174	-0.0269315077	-0.58226
H	 1.0328612569	 1.8633949533	 0.1106259027	 0.137596
H	-0.5843033837	 1.8594153615	-0.6239089867	 0.137594
H	-0.4024480328	 1.6184058029	 1.1245031097	 0.140131
H	-0.2060728878	-0.6670022843	 0.7044262554	 0.272212
H	 1.1714235767	 1.0271729487	-2.3383922585	 0.110359
H	 1.1652021393	-3.6633180711	-2.300458593	 0.264197
H	 0.1718664851	-3.7322583332	-0.1122057711	 0.207226
94.5328	109.8889	157.3603	195.7499	244.8854	354.7091	454.2212	503.1763	524.8766	538.4277	597.0757	616.4372	677.2729	769.0988	782.9325	793.892	869.442	922.0407	1027.8988	1074.6819	1126.0772	1158.86	1161.438	1200.516	1276.334	1348.9324	1396.2611	1438.8832	1464.0105	1480.8736	1515.8505	1526.3871	1575.2877	1644.8	1696.8441	3006.4252	3050.8499	3136.8807	3210.8625	3490.9656	3589.1038	3617.5878
CNC1=CN=NNC1=N	CNc1cnn[nH]c1[NH]	
InChI=1S/C4H7N5/c1-6-3-2-7-9-8-4(3)5/h2H,1H3,(H,6,9)(H2,5,7,8)	InChI=1S/C4H12N5/c1-6-3-2-7-9-8-4(3)5/h3-9H,2H2,1H3
