16
gdb 67798	3.22676	1.99724	1.56379	2.6051	71.68	-0.2088	-0.0101	0.1987	856.5703	0.12706	-396.887042	-396.880509	-396.879564	-396.917399	27.374	
N	-0.1292124559	 1.4654965585	 0.0000185384	-0.589006
C	-0.1002846974	 0.0353591949	-0.0863555264	 0.245531
C	 0.7260848615	-0.7297758224	-1.0577606545	-0.155146
C	 0.132293696	-1.8965389976	-1.3254715129	-0.083509
N	-1.0826187906	-2.0953023368	-0.5164065406	-0.175341
C	-0.4351133339	-2.7361275252	 0.6278463243	 0.018082
N	-0.1065118012	-1.9920599593	 1.6089346483	-0.193225
C	-0.5551871695	-0.6746487233	 1.2673301538	-0.029347
C	-1.3866239551	-0.739363591	 0.0286897736	-0.079143
H	 0.7524205189	 1.8279049519	 0.3493489969	 0.23707
H	-0.2825283988	 1.8747222779	-0.9174394783	 0.233636
H	 1.6560299733	-0.3721022532	-1.4809629466	 0.104259
H	 0.4670755157	-2.7088783284	-1.9558662343	 0.122499
H	-0.1999925115	-3.7925301374	 0.5582623777	 0.131224
H	-0.7554984676	 0.0185927938	 2.0725032484	 0.113417
H	-2.380799584	-0.3318806223	-0.1150837378	 0.099002
210.7103	293.8979	308.6895	334.6359	367.2628	505.5447	583.1074	614.8718	714.2905	734.7631	771.9097	794.2341	823.1334	846.3544	855.0328	896.8679	901.339	926.8885	940.2101	969.9971	994.9533	1043.5193	1071.6946	1093.5489	1140.6592	1198.8287	1245.7153	1251.0141	1267.1596	1310.3432	1343.0072	1393.509	1629.4395	1642.4781	1657.1386	3169.9711	3205.8925	3209.7782	3218.1046	3239.472	3487.8139	3565.2554
NC12C=CN3C=NC1C23	N[C@@]12C=CN3[CH][N][C@@H]1[C@@H]23	
InChI=1S/C6H7N3/c7-6-1-2-9-3-8-4(6)5(6)9/h1-5H,7H2	InChI=1S/C6H7N3/c7-6-1-2-9-3-8-4(6)5(6)9/h1-5H,7H2/t4-,5+,6+/m1/s1
