25
gdb 118119	2.94759	0.75752	0.68994	1.7217	90.04	-0.256	0.0846	0.3406	1810.7458	0.226429	-389.488348	-389.477083	-389.476139	-389.525472	40.616	
C	-1.1142148098	 2.5766918093	 0.7926185784	-0.379246
C	-0.8005021162	 1.1577565778	 0.3084252322	-0.178892
C	-2.0013741079	 0.2132000405	 0.4349001095	-0.157474
C	-1.7715397626	-1.2100722578	-0.1115718104	-0.018339
C	-0.7256768471	-2.002185099	 0.6879929116	-0.400612
C	-3.086420031	-1.9636925395	-0.1137338415	 0.065853
O	-4.0911782466	-1.548735696	-1.0466731229	-0.274009
C	-3.5562463394	-2.8728061862	-1.1742156273	 0.073313
C	-2.8039100817	-3.2000065817	-2.4390451613	-0.421525
H	-0.2466099742	 3.235935492	 0.6890886749	 0.109524
H	-1.938406395	 3.016308763	 0.2201327856	 0.11623
H	-1.4093975448	 2.5781702547	 1.8478799327	 0.113178
H	-0.4783360167	 1.1927545621	-0.7410385145	 0.094201
H	 0.0517702572	 0.7646563399	 0.8757068756	 0.095943
H	-2.3053423365	 0.1483927699	 1.4899755001	 0.086158
H	-2.8532869676	 0.646644307	-0.1033254408	 0.112252
H	-1.4257618212	-1.1164469781	-1.1477482302	 0.07282
H	-0.589689283	-3.0069272243	 0.2748464759	 0.114403
H	 0.2477113797	-1.5049298146	 0.679197131	 0.120245
H	-1.033490202	-2.1115153718	 1.7348874364	 0.11429
H	-3.4817138401	-2.1459455599	 0.8907837238	 0.079221
H	-4.2594558478	-3.650478801	-0.8656407952	 0.083531
H	-2.1034818273	-2.4096675128	-2.7152496865	 0.129652
H	-2.2478025748	-4.136580764	-2.3207804377	 0.120308
H	-3.5061062135	-3.3327254496	-3.2689439696	 0.128976
45.6145	72.3012	103.4025	110.8849	170.7637	194.5986	218.0536	233.4742	252.3313	316.4317	373.6269	390.7332	416.0397	509.5767	564.3513	746.2954	779.6256	817.8867	854.2617	877.0842	920.5998	939.9063	987.896	994.8749	1014.5658	1046.2464	1082.3798	1086.0527	1142.5429	1148.526	1178.4464	1189.0961	1201.0037	1261.5998	1284.173	1305.442	1325.1256	1336.2118	1361.0916	1392.5159	1404.1145	1408.194	1413.9937	1420.8855	1469.9763	1482.0962	1490.6063	1493.5874	1498.6774	1499.3213	1501.6023	1511.0996	1514.2191	3002.6347	3017.9185	3029.3472	3029.7617	3035.8353	3039.5997	3043.9402	3054.8261	3066.2998	3076.3881	3094.4184	3097.0727	3097.4602	3101.2377	3113.8067	3136.2258
CCCC(C)C1OC1C	CCC[C@@H](C)[C@H]1O[C@H]1C	
InChI=1S/C8H16O/c1-4-5-6(2)8-7(3)9-8/h6-8H,4-5H2,1-3H3	InChI=1S/C8H16O/c1-4-5-6(2)8-7(3)9-8/h6-8H,4-5H2,1-3H3/t6-,7+,8-/m1/s1
