15
gdb 55060	3.6951	0.8958	0.86047	2.0824	66.31	-0.2673	-0.0091	0.2582	1332.6944	0.11192	-453.968888	-453.960114	-453.95917	-454.00335	31.258	
N	 0.6272479263	-0.5141840683	 0.1963910137	-0.519116
C	-0.1431723747	 0.564102265	-0.1211457145	 0.350884
O	 0.2827133494	 1.6539839868	-0.4428441928	-0.34865
C	-1.6327652808	 0.3148809989	-0.0251402601	-0.051059
O	-2.0758631355	-0.9982564856	 0.3401604481	-0.249168
C	-2.3261450197	 0.0671502373	 1.253239583	 0.078116
C	-1.6055913064	 0.0383242385	 2.5905064057	-0.382384
C	-2.2307388664	-0.8959332521	 3.5266800852	 0.261986
N	-2.7323098121	-1.6329087077	 4.2610939622	-0.293229
H	 1.6197830976	-0.4495806341	 0.0357053878	 0.270916
H	 0.1962588963	-1.4222066525	 0.2680412602	 0.278809
H	-2.1940213494	 0.7999878588	-0.8212289502	 0.134091
H	-3.3748737269	 0.356891684	 1.3142753781	 0.128538
H	-0.5563936424	-0.2361102145	 2.4511950133	 0.169858
H	-1.6264867352	 1.0432923453	 3.0286227604	 0.170406
48.0596	78.2997	121.2301	176.081	251.4908	367.5964	391.3072	408.215	437.2535	475.2005	539.8288	557.1654	638.1438	749.1352	803.6408	836.8022	923.1816	962.2352	969.203	1034.7347	1091.0266	1128.2427	1135.4167	1244.9693	1273.4018	1320.7158	1344.1106	1391.3946	1456.7528	1466.7982	1598.7372	1810.5901	2367.7528	3051.159	3102.9517	3123.4563	3145.9975	3584.9295	3720.1137
NC(=O)C1OC1CC#N	NC(=O)[C@H]1O[C@H]1CC#N	
InChI=1S/C5H6N2O2/c6-2-1-3-4(9-3)5(7)8/h3-4H,1H2,(H2,7,8)	InChI=1S/C5H6N2O2/c6-2-1-3-4(9-3)5(7)8/h3-4H,1H2,(H2,7,8)/t3-,4-/m0/s1
