20
gdb 112894	2.29595	1.48127	1.13914	1.33	75.53	-0.2062	-0.0303	0.1759	1167.244	0.169831	-440.278971	-440.26956	-440.268616	-440.313531	34.179	
C	 0.4214319173	 0.6688457109	 0.2752117601	-0.244982
O	-0.1543626496	-0.5433131779	-0.1855837527	-0.24795
C	-1.5755698127	-0.5608634564	-0.1493327897	 0.022095
C	-2.07575617	-1.8302211804	-0.8391977875	-0.215731
N	-2.0680519291	-2.9141149673	 0.1647234863	-0.072785
C	-0.8039502889	-3.6493747948	 0.2233230151	-0.331157
C	-2.4179922652	-2.2710983556	 1.4314253293	-0.278712
C	-2.0316243588	-0.7887326428	 1.3135475502	 0.378203
O	-2.0545217984	 0.0360920189	 2.1904389441	-0.31165
H	 1.5031172155	 0.5607503215	 0.1679459688	 0.127854
H	 0.0823286429	 1.5206348735	-0.3333653968	 0.108509
H	 0.1756519026	 0.8713638512	 1.3238415477	 0.139343
H	-1.988834346	 0.3703231743	-0.5609492214	 0.082494
H	-3.1056114287	-1.6681505093	-1.184288007	 0.105994
H	-1.4613105212	-2.0930122457	-1.7021087805	 0.119676
H	 0.0624662657	-3.0310900179	 0.5060427412	 0.116296
H	-0.9000553014	-4.4701552256	 0.940974709	 0.11791
H	-0.6018467662	-4.0903798024	-0.7573886032	 0.120111
H	-3.5030803118	-2.313501881	 1.6116919732	 0.13016
H	-1.931216286	-2.7401028733	 2.2902031439	 0.134322
54.4117	103.4834	125.7951	175.941	226.218	241.9366	278.0175	363.2544	384.4936	412.4278	468.6553	547.6826	613.5988	706.6208	813.2098	819.4277	868.4957	948.4409	992.968	1037.6989	1054.0746	1088.7843	1121.5337	1150.6417	1164.5758	1185.4164	1191.8629	1221.1898	1261.4193	1265.648	1295.2647	1344.1402	1351.3473	1367.3451	1448.6953	1460.7597	1475.9041	1481.2667	1484.1818	1491.4617	1510.7816	1514.6132	1842.7081	2982.2246	2992.7663	2995.493	3008.9942	3024.3137	3069.2521	3070.0124	3098.7541	3105.5452	3119.1446	3124.5073
COC1CN(C)CC1=O	CO[C@H]1CN(C)CC1=O	
InChI=1S/C6H11NO2/c1-7-3-5(8)6(4-7)9-2/h6H,3-4H2,1-2H3	InChI=1S/C6H11NO2/c1-7-3-5(8)6(4-7)9-2/h6H,3-4H2,1-2H3/t6-/m0/s1
