13
gdb 8987	7.17977	1.01006	0.92191	5.0284	64.63	-0.2627	-0.0755	0.1873	1179.5668	0.092475	-398.561782	-398.553387	-398.552443	-398.59557	28.449	
N	-0.0676762452	 1.1355943736	-0.1118850851	-0.439853
C	-0.2529880208	-0.0923094141	 0.0927792272	 0.146139
O	-0.587495572	-0.896048321	-0.9475994668	-0.165895
C	-0.8085751187	-2.2511650422	-0.6572852705	-0.20038
C	-2.1124049801	-2.4999463913	 0.1071063755	 0.223342
O	-2.7617496875	-1.6080210142	 0.5991198081	-0.264364
C	-2.4772503881	-3.8999721661	 0.2137973374	 0.24473
C	-2.7476459387	-5.0710637416	 0.2786787241	-0.388392
H	 0.1898016775	 1.5991856052	 0.7566857458	 0.23295
H	-0.1557745652	-0.6254884196	 1.0465318065	 0.091271
H	-0.8453213859	-2.7806596873	-1.6138690827	 0.157605
H	 0.014468733	-2.69620258	-0.075426301	 0.138294
H	-3.0050179383	-6.1006223614	 0.3487080514	 0.224554
48.5266	80.4918	145.6891	147.2404	235.1654	273.4661	340.3996	443.6532	557.3244	596.5198	661.3314	669.4615	716.5118	815.4601	845.397	962.6616	1023.1698	1035.3999	1087.7086	1185.4358	1238.6943	1318.8051	1382.1729	1421.0629	1463.7273	1752.4267	1788.1502	2212.2594	2990.6156	3041.768	3095.5479	3491.4976	3524.0201	48.5267	80.4918	145.6892	147.2405	235.1645	273.466	340.3996	443.6531	557.3242	596.5196	661.3306	669.4612	716.5106	815.4603	845.3971	962.6617	1023.1698	1035.3999	1087.7082	1185.4359	1238.6941	1318.8049	1382.1725	1421.0629	1463.7268	1752.4266	1788.1492	2212.2595	2990.6157	3041.768	3095.548	3491.4973	3524.02
N=COCC(=O)C#C	[NH][CH]OCC(=O)C#C	
InChI=1S/C5H5NO2/c1-2-5(7)3-8-4-6/h1,4,6H,3H2	InChI=1S/C5H5NO2/c1-2-5(7)3-8-4-6/h1,4,6H,3H2
