23
gdb 95544	2.27961	1.62858	1.06818	0.3626	91.51	-0.2236	0.0273	0.2509	1212.9297	0.208314	-351.159743	-351.15123	-351.150286	-351.192623	34.257	
C	 0.1815933102	 1.5750110178	 0.0115980895	-0.389786
C	 0.0491558651	 0.0469849027	-0.1161872833	 0.006566
C	 0.9872490663	-0.4822626082	-1.2098325614	-0.204189
C	 0.7048890848	-1.9143227988	-1.6867306459	-0.256116
C	 1.0557698255	-3.0336322289	-0.7413022897	-0.074127
C	 1.0135312016	-3.0543269127	 0.592494909	-0.047135
C	 0.6186960589	-2.0072498133	 1.5647605964	-0.081651
C	 1.5481134273	-0.8450647554	 1.9074068281	-0.293067
C	 0.2121844855	-0.5842461184	 1.2603611777	 0.004687
H	 1.1993444922	 1.8544177109	 0.3062798496	 0.116001
H	-0.043212274	 2.0723787041	-0.9376048375	 0.106443
H	-0.5026960837	 1.9720509175	 0.7686895123	 0.1073
H	-0.9787403313	-0.1687101137	-0.4460436741	 0.069663
H	 0.8908562879	 0.1836936731	-2.0763569123	 0.089914
H	 2.0326334359	-0.4017342	-0.8861641113	 0.096774
H	-0.3580019475	-1.9908483478	-1.9662628934	 0.106264
H	 1.2552099133	-2.0795300103	-2.6211565565	 0.096215
H	 1.3769833302	-3.9519435114	-1.2299420596	 0.079334
H	 1.3112401354	-3.9858179101	 1.0734473252	 0.079764
H	 0.1169607481	-2.4300634669	 2.4326050392	 0.084547
H	 1.6913894773	-0.5775402894	 2.9490076635	 0.106127
H	 2.4398692014	-0.7547428526	 1.2972231683	 0.11712
H	-0.5384352006	-0.2080688182	 1.9534240063	 0.079356
66.7108	202.4211	208.6742	224.7086	287.1837	310.0545	362.5454	390.3383	461.8194	534.4363	582.9897	702.3817	737.7629	739.6668	793.4527	828.0344	873.0607	893.578	936.5763	960.6142	975.998	991.5114	1007.8255	1035.6969	1055.2151	1071.4505	1092.4792	1111.9484	1139.7686	1151.3622	1175.63	1213.6408	1259.911	1268.7874	1289.1832	1331.5317	1360.1567	1380.7445	1387.8808	1402.348	1413.6059	1428.4182	1443.4768	1477.2575	1486.0755	1496.2177	1499.7492	1503.3754	1735.3515	2981.9769	2985.0625	3019.5647	3028.0069	3041.8109	3058.3302	3096.1837	3098.711	3108.0211	3114.7181	3124.9395	3133.3785	3144.8572	3220.1542
CC1CCC=CC2CC12	C[C@H]1CCC=C[C@H]2C[C@@H]12	
InChI=1S/C9H14/c1-7-4-2-3-5-8-6-9(7)8/h3,5,7-9H,2,4,6H2,1H3	InChI=1S/C9H14/c1-7-4-2-3-5-8-6-9(7)8/h3,5,7-9H,2,4,6H2,1H3/t7-,8-,9-/m0/s1
