21
gdb 64375	2.02969	1.87085	1.39184	2.0312	77.8	-0.2316	0.0697	0.3013	1057.5244	0.181603	-424.218761	-424.209654	-424.20871	-424.252386	35.401	
C	 0.1029128754	 1.6730039372	-0.173446837	-0.445327
C	-0.0192379807	 0.1587945008	 0.0187096764	 0.32723
O	-1.3803193157	-0.2240309845	 0.1578555863	-0.478454
C	 0.7319013266	-0.6275677986	-1.0961994005	-0.29982
C	 2.0887943778	-0.9943060761	-0.4487794546	-0.086287
O	 2.0989717893	-0.3836752396	 0.8471854706	-0.29734
C	 0.758916596	-0.2962008014	 1.252008016	 0.436049
C	 0.4823903812	 0.1279400775	 2.649661931	-0.345441
C	 0.2183260981	-1.3096653296	 2.2250616797	-0.339595
H	 1.154722831	 1.971879267	-0.1851111106	 0.134773
H	-0.3467569767	 1.9828140061	-1.1251732987	 0.100592
H	-0.3997521801	 2.2050663651	 0.6391415231	 0.122443
H	-1.8924529034	 0.2493631055	-0.5048792249	 0.278853
H	 0.1518699757	-1.5198265524	-1.3412672288	 0.112933
H	 0.8516372328	-0.0365240995	-2.0081368912	 0.096908
H	 2.1988109244	-2.0830875717	-0.3524861687	 0.097683
H	 2.9534379122	-0.6098809118	-0.995978201	 0.105903
H	 1.3377935537	 0.3197148971	 3.2875006777	 0.120091
H	-0.3756285691	 0.7683803902	 2.8249374919	 0.116626
H	-0.8111816333	-1.627944413	 2.1183282635	 0.130167
H	 0.9149580345	-2.0633344683	 2.5751453698	 0.112014
50.0549	131.7149	220.7308	236.138	249.0638	277.5209	311.6873	338.8442	415.3784	445.3456	522.0041	575.3559	631.1443	701.3881	771.6433	810.9193	855.2635	886.6843	916.2306	948.8661	976.2171	983.7593	996.4587	1006.8077	1042.1896	1062.139	1079.9624	1110.4469	1171.6494	1192.8755	1195.1145	1235.6081	1252.231	1266.7453	1281.5196	1329.5471	1390.1315	1402.9696	1417.1065	1442.8679	1486.3175	1491.3612	1496.7127	1504.1506	1526.6184	3006.5516	3024.6853	3062.4621	3086.2995	3096.4816	3116.593	3123.8525	3133.2163	3141.9037	3220.5697	3240.8379	3823.6125
CC1(O)CCOC11CC1	C[C@@]1(O)CCOC21CC2	
InChI=1S/C7H12O2/c1-6(8)4-5-9-7(6)2-3-7/h8H,2-5H2,1H3	InChI=1S/C7H12O2/c1-6(8)4-5-9-7(6)2-3-7/h8H,2-5H2,1H3/t6-/m1/s1
