22
gdb 36911	4.29743	0.88131	0.833	1.0609	87.95	-0.2274	0.0339	0.2613	1474.1242	0.195638	-367.191731	-367.183131	-367.182187	-367.225757	32.871	
C	-0.1269947973	 1.4741555712	 0.1739267704	-0.147816
C	 0.0203422797	-0.0116107232	-0.1791471329	 0.008902
C	 0.745181707	-0.7956826481	 0.9524784825	-0.255209
C	-0.3778295967	-1.5072413454	 1.6668066513	-0.054799
C	-1.5236621343	-1.4463134564	 0.9915275973	-0.056459
C	-1.3797952388	-0.6806719798	-0.3024102819	-0.271909
N	 1.169437595	 2.1262960117	 0.320400591	-0.055911
C	 1.7383698723	 2.7164096745	-0.886483549	-0.220336
C	 1.1845103168	 3.5771927394	 0.1955124162	-0.221313
H	-0.748429171	 1.9716291301	-0.5943554994	 0.073103
H	-0.6599472788	 1.5685101742	 1.1291484919	 0.105535
H	 0.5739442454	-0.0815448156	-1.1206578024	 0.067134
H	 1.4675054058	-1.518318172	 0.5481406798	 0.097171
H	 1.3178760146	-0.1212927071	 1.5974923125	 0.119411
H	-0.2349481542	-2.0236537251	 2.6100798006	 0.086194
H	-2.4579512555	-1.9059020991	 1.2955247116	 0.085978
H	-2.1772783135	 0.0597192717	-0.4482969448	 0.094748
H	-1.434847338	-1.3569713599	-1.1666683703	 0.100496
H	 2.8116833298	 2.6057618611	-1.0120229527	 0.115461
H	 1.161681191	 2.6482617961	-1.8083878078	 0.107191
H	 0.2408413345	 4.0817967013	-0.0082098267	 0.107052
H	 1.8454813262	 4.1068769306	 0.8759577727	 0.115377
65.165	76.69	116.1641	161.2568	292.9762	340.8297	394.956	422.2769	467.7278	690.3418	724.5221	767.4071	789.3408	833.7129	851.2609	897.3051	910.676	922.0681	954.0449	975.0622	978.5967	1009.6157	1027.1429	1045.9227	1082.8936	1096.5285	1113.5141	1117.7961	1131.5826	1164.1014	1170.5336	1191.38	1227.5729	1241.7748	1291.4811	1308.462	1321.7112	1327.129	1353.1217	1381.3786	1397.5113	1484.8032	1487.0246	1493.6512	1498.6607	1522.3624	1689.5429	2922.1798	3006.1763	3010.1335	3033.2009	3036.4172	3061.1592	3072.1614	3089.2247	3093.8187	3172.8061	3177.4788	3187.0952	3203.5151
C(C1CC=CC1)N1CC1	C([C@H]1CC=CC1)N1CC1	
InChI=1S/C8H13N/c1-2-4-8(3-1)7-9-5-6-9/h1-2,8H,3-7H2	InChI=1S/C8H13N/c1-2-4-8(3-1)7-9-5-6-9/h1-2,8H,3-7H2
