22
gdb 102750	2.83011	0.89814	0.76603	3.4879	84.26	-0.237	-0.0117	0.2253	1583.1348	0.191943	-404.328442	-404.318106	-404.317162	-404.364854	36.655	
C	 0.0998580533	 1.5425272922	 0.0433359394	-0.388938
C	-0.1133701955	 0.0328681141	-0.0979469394	-0.196949
C	 0.6914375011	-0.602543525	-1.2553161165	-0.057747
C	 0.6592827024	-2.1325589997	-1.1855836866	-0.175086
N	 1.333895801	-2.7038544093	-2.3439114277	-0.060615
C	 2.7691192766	-2.9367939336	-2.2176810134	-0.218989
C	 1.8089697888	-4.0755188081	-2.2200911889	-0.22312
C	 0.1096049575	-0.1406989959	-2.580143171	 0.187299
O	 0.5491435339	 0.7524489111	-3.2566352586	-0.26058
H	 1.146387808	 1.7711112608	 0.270561918	 0.119782
H	-0.1576784361	 2.0726927639	-0.8780797831	 0.138587
H	-0.5153752675	 1.9479446771	 0.8521741143	 0.113519
H	 0.16937527	-0.4706119044	 0.834823923	 0.101752
H	-1.1809016075	-0.1824781628	-0.244287713	 0.101645
H	 1.7278030277	-0.2480555433	-1.2129517013	 0.092203
H	 1.0973312903	-2.4698745732	-0.2285761165	 0.083666
H	-0.3822422796	-2.4808310576	-1.2001911221	 0.105925
H	 3.3645776085	-2.7123508553	-3.0973882417	 0.125351
H	 3.2443839412	-2.6913569945	-1.2688522436	 0.110787
H	 1.6444102325	-4.5879159683	-1.2731579416	 0.110047
H	 1.6915391457	-4.698845776	-3.1017292872	 0.121752
H	-0.8247755124	-0.6770488721	-2.8719908325	 0.069709
54.9178	71.6795	91.4913	110.0565	123.2098	224.7949	246.4313	312.259	342.021	344.2076	405.3349	461.1316	581.1241	768.8496	776.882	828.9751	870.6027	895.3769	923.187	976.4361	1008.4604	1022.0119	1035.9633	1049.0881	1104.2628	1114.1269	1119.6032	1142.6889	1159.8185	1176.8321	1190.73	1262.1867	1267.6718	1303.6582	1326.1151	1355.2408	1369.9358	1389.6639	1419.3465	1427.4908	1484.7682	1490.6494	1496.7791	1498.9831	1507.1335	1523.9465	1833.1425	2848.1259	2937.8529	3013.3323	3031.1259	3039.4523	3044.9991	3058.6885	3093.8627	3098.6112	3106.1399	3117.2428	3180.0623	3194.4802
CCC(CN1CC1)C=O	CC[C@@H](CN1CC1)C=O	
InChI=1S/C7H13NO/c1-2-7(6-9)5-8-3-4-8/h6-7H,2-5H2,1H3	InChI=1S/C7H13NO/c1-2-7(6-9)5-8-3-4-8/h6-7H,2-5H2,1H3/t7-/m0/s1
