19
gdb 30821	2.30615	1.35693	0.90669	1.4468	80.76	-0.1886	0.0182	0.2068	1328.6675	0.158994	-419.260325	-419.250586	-419.249641	-419.295479	34.783	
C	-0.3921310055	 1.5193165908	-0.171338736	-0.367735
C	 0.0533125498	 0.0559959986	 0.0036998117	-0.306075
C	 0.862477972	-0.4720690714	-1.1249320154	 0.282373
C	 2.1461304256	-0.8932026817	-1.2884072977	 0.153391
N	 3.1814795782	-1.0223592952	-0.3603214258	-0.602043
N	 2.342687803	-1.2971142106	-2.6022648157	-0.343231
C	 1.1954076334	-1.1079960186	-3.179881506	 0.37924
C	 0.8287191819	-1.3731281163	-4.5955853407	-0.489439
O	 0.246639623	-0.6081842342	-2.3625565621	-0.219637
H	 0.471930223	 2.1857201379	-0.2562837911	 0.114808
H	-0.9919963025	 1.6331144327	-1.0788026818	 0.129338
H	-0.9970950017	 1.8476200271	 0.6796774528	 0.11123
H	 0.6486680375	-0.0481727974	 0.9180473483	 0.108355
H	-0.8347935126	-0.5739092125	 0.1504221607	 0.116267
H	 3.2144163163	-0.2751613692	 0.3198682734	 0.243583
H	 4.072677366	-1.104657015	-0.8321903641	 0.251465
H	 0.0143283248	-2.1023699674	-4.6624539842	 0.143358
H	 0.4916646728	-0.4586284932	-5.0950414103	 0.14173
H	 1.700082395	-1.7649803743	-5.1206742961	 0.153023
49.5285	96.1674	118.014	181.5919	190.4792	222.1141	270.4587	282.7607	313.0747	417.9551	506.0547	612.2978	635.5578	677.1377	701.2416	764.0814	780.6937	811.4118	963.1214	980.7551	1028.4208	1061.9795	1064.1706	1082.703	1090.9741	1181.0048	1259.6735	1289.0434	1343.2024	1362.3387	1402.7459	1411.2306	1423.4739	1474.0692	1475.9445	1482.3747	1495.7918	1507.6187	1614.8217	1642.1286	1705.1027	3012.5318	3037.5229	3041.2807	3063.3278	3093.804	3108.29	3117.1431	3155.9024	3546.3454	3640.9091
CCC1=C(N)N=C(C)O1	CCc1c(N)nc(C)o1	
InChI=1S/C6H10N2O/c1-3-5-6(7)8-4(2)9-5/h3,7H2,1-2H3	InChI=1S/C6H10N2O/c1-3-5-6(7)8-4(2)9-5/h3,7H2,1-2H3
