17
gdb 82717	2.43008	1.93241	1.52977	2.9985	71.34	-0.2351	-0.0149	0.2201	920.325	0.136906	-421.799507	-421.792335	-421.791391	-421.831011	28.532	
O	 0.0413401478	 1.4443792172	 0.0567591647	-0.42324
C	 0.003470797	 0.0462321002	-0.0524786133	 0.141424
C	-1.4106514537	-0.5631467404	-0.0106670623	-0.074192
C	-2.4060883323	 0.1706107073	-0.9379156578	-0.232335
C	-1.7960089129	-0.5477535094	-2.1803405549	-0.174905
C	-1.0047599498	-1.5029067568	-1.2020603035	-0.041465
C	 0.2949609468	-0.6355103011	-1.4300009831	-0.249527
C	-0.4466895791	 0.0584147826	-2.5753209832	 0.447143
O	-0.0750549585	 0.6986424069	-3.5173992589	-0.322666
H	 0.943328148	 1.7468235344	-0.0923605532	 0.291094
H	 0.6329714185	-0.4399677265	 0.7072972195	 0.077983
H	-1.7739908205	-0.8970752653	 0.960645529	 0.07332
H	-3.4252810782	-0.1847232064	-0.7673130766	 0.109292
H	-2.3963356746	 1.2626604309	-0.9254582149	 0.125936
H	-2.4645401852	-0.8575963161	-2.9836735781	 0.089224
H	-1.0348751062	-2.5873994877	-1.2227571713	 0.079103
H	 1.3039833229	-1.00216603	-1.6200555521	 0.08381
112.1229	160.1922	255.6769	269.4874	398.926	449.931	523.1487	561.3241	577.1898	717.737	780.3281	818.9729	833.7638	843.4665	893.2657	909.425	956.4183	964.2926	993.2183	1031.9092	1064.8495	1069.8312	1121.6565	1123.4632	1148.7421	1167.6915	1185.4264	1203.994	1225.7321	1241.6803	1249.6171	1297.7866	1324.9125	1343.5651	1413.399	1483.2838	1879.0067	2989.1392	3064.9114	3110.6069	3111.6167	3113.2511	3123.3031	3171.1658	3815.2887
OC1C2CC3C2C1C3=O	O[C@H]1[C@H]2C[C@@H]3[C@H]2[C@H]1C3=O	
InChI=1S/C7H8O2/c8-6-2-1-3-4(2)5(6)7(3)9/h2-6,8H,1H2	InChI=1S/C7H8O2/c8-6-2-1-3-4(2)5(6)7(3)9/h2-6,8H,1H2/t2-,3+,4-,5+,6-/m0/s1
