14
gdb 132628	3.10734	1.36549	0.94958	3.0934	69.83	-0.2017	-0.0195	0.1823	1130.5898	0.101891	-478.030678	-478.023145	-478.022201	-478.062456	29.255	
N	-0.0253040016	 1.4147262838	-0.0927181161	-0.595097
C	 0.0121751589	 0.016227124	-0.0387934247	 0.277103
C	-1.1505273645	-0.7538486735	-0.0690910988	-0.072958
N	-1.1504799067	-2.0919029414	-0.0873350944	-0.348811
C	-0.0027774994	-2.7408598504	-0.0714675063	 0.29451
O	-0.0017228252	-4.0938046689	-0.0862114453	-0.417863
C	 1.2193659272	-2.0564882744	-0.0354419286	 0.197212
F	 2.3618121665	-2.7431477337	-0.0150269409	-0.06324
C	 1.2318168343	-0.6796002793	-0.0211882232	-0.276757
H	 0.7495959407	 1.869289026	 0.3697711397	 0.249088
H	-0.9025104023	 1.811426195	 0.2146482877	 0.249331
H	-2.1255088747	-0.2722087542	-0.0829481013	 0.098479
H	-0.9324527447	-4.3541343586	-0.1108492224	 0.297729
H	 2.1831512415	-0.1588438845	-0.0018082654	 0.111272
142.9056	231.2715	248.42	289.2843	320.313	389.614	457.0522	479.5149	509.3452	510.0778	594.7513	614.0223	670.4636	738.0919	761.0724	820.5311	896.5782	904.3563	1004.626	1100.1288	1159.4586	1206.1742	1285.8306	1326.5106	1352.8725	1384.549	1502.3161	1534.1156	1642.905	1653.8013	1670.567	3150.3942	3192.5263	3554.1754	3648.834	3777.5895
NC1=CN=C(O)C(F)=C1	Nc1cnc(O)c(F)c1	
InChI=1S/C5H5FN2O/c6-4-1-3(7)2-8-5(4)9/h1-2H,7H2,(H,8,9)	InChI=1S/C5H5FN2O/c6-4-1-3(7)2-8-5(4)9/h1-2H,7H2,(H,8,9)
