12
gdb 14567	9.16852	0.69294	0.66023	1.5573	66.72	-0.2958	-0.0072	0.2886	1550.48	0.08282	-340.375991	-340.367656	-340.366712	-340.411735	27.27	
N	-0.0994710217	-1.1368585072	-0.4690946833	-0.29312
C	-0.0497753397	-0.0124770372	-0.2128016816	 0.279851
C	-0.0002278295	 1.4178001332	 0.1167058246	-0.470706
C	 1.3583186847	 1.955589126	 0.1079522846	 0.102815
C	 2.471334421	 2.4041766126	 0.0997355878	 0.102815
C	 3.8298550931	 2.9419793895	 0.0883263678	-0.470706
C	 3.8732515876	 4.3757143379	-0.2267008824	 0.279851
N	 3.918162197	 5.5027861937	-0.4718163879	-0.29312
H	-0.6274089747	 1.9609384513	-0.6015674103	 0.192068
H	-0.463418362	 1.5624548452	 1.1009232434	 0.189092
H	 4.3117324435	 2.7868196257	 1.0619143075	 0.189092
H	 4.4431561706	 2.4066434894	-0.6475734504	 0.192068
6.2903	69.4689	112.9226	197.0532	287.7711	352.2868	371.6948	383.8719	390.7612	508.9605	596.8614	805.8259	922.3363	934.7314	937.2576	941.2862	1163.5124	1233.4589	1233.943	1334.2102	1343.1909	1446.6112	1447.8114	2373.5311	2374.3415	2397.8607	3030.3117	3030.9807	3062.148	3062.4304
N#CCC#CCC#N	N#CCC#CCC#N	
InChI=1S/C6H4N2/c7-5-3-1-2-4-6-8/h3-4H2	InChI=1S/C6H4N2/c7-5-3-1-2-4-6-8/h3-4H2
