17
gdb 114721	2.60822	1.54572	1.2189	2.5438	68.73	-0.2306	-0.042	0.1886	1061.3175	0.13505	-458.949625	-458.94134	-458.940395	-458.983	30.209	
C	-0.5451813977	 0.9268885953	 0.0983140721	-0.243542
O	 0.0485629834	-0.349968069	-0.0594943172	-0.241487
C	 0.8909979053	-0.4592729903	-1.1888324676	 0.017287
C	 1.6981355643	-1.7708993591	-1.1080833574	-0.279849
C	 1.0146459922	-2.7270330738	-2.0725194408	 0.042336
O	-0.3796411875	-2.8515564959	-1.8269475119	-0.233271
C	 0.0401255159	-2.0109780291	-2.9191911884	-0.076408
C	 0.0623554523	-0.5650419403	-2.501456543	 0.404433
O	-0.4389417038	 0.3591780923	-3.0903298059	-0.321502
H	 0.2211530314	 1.7126417905	 0.1859978215	 0.105625
H	-1.2081787957	 1.1829145447	-0.7364263168	 0.135464
H	-1.1255695783	 0.8878335769	 1.0227491262	 0.129358
H	 1.542363183	 0.424338135	-1.2633215018	 0.087371
H	 2.7364757846	-1.6097897227	-1.4151404269	 0.113533
H	 1.6965585981	-2.1553947286	-0.0851859381	 0.136404
H	 1.5155286918	-3.6252070713	-2.4246222934	 0.108314
H	-0.2685059394	-2.3086439347	-3.9162616505	 0.115934
62.3126	110.0502	170.5701	195.0292	238.2703	331.1619	369.3348	421.7709	462.6176	584.839	691.0075	719.5356	811.0215	855.1129	870.9463	900.2659	949.6451	998.4544	1036.8801	1065.144	1107.5447	1140.8331	1177.479	1186.0913	1202.828	1230.6099	1251.552	1255.688	1314.3996	1336.515	1366.7941	1414.7232	1467.7234	1476.4458	1487.5878	1513.2144	1838.0536	2986.1495	2993.0512	3059.938	3062.8805	3114.1702	3124.5029	3151.2184	3176.1869
COC1CC2OC2C1=O	CO[C@H]1C[C@H]2O[C@H]2C1=O	
InChI=1S/C6H8O3/c1-8-3-2-4-6(9-4)5(3)7/h3-4,6H,2H2,1H3	InChI=1S/C6H8O3/c1-8-3-2-4-6(9-4)5(3)7/h3-4,6H,2H2,1H3/t3-,4+,6+/m0/s1
