18
gdb 111706	2.74014	1.18247	0.9516	3.2584	78.25	-0.2622	0.0087	0.2709	1273.79	0.147412	-401.922505	-401.913839	-401.912895	-401.956248	31.842	
C	 0.1640928044	 1.4743263753	 0.1560940196	-0.378566
C	-0.1814130194	-0.0013428466	-0.0799177831	-0.217619
C	 0.5724100606	-0.5723408502	-1.262207878	-0.081566
C	 1.9146865702	-1.2146723782	-1.1700151181	 0.052932
O	 2.0918975009	-1.9175962881	 0.0532516346	-0.273351
C	 1.0254881553	-2.841098366	-0.2826689519	-0.138836
C	 0.7006436208	-2.0698217577	-1.5665914383	 0.095577
C	 0.3287754358	-2.6514417934	-2.8086686739	 0.19035
N	 0.0180798304	-3.1289520928	-3.81709625	-0.34967
H	 1.2317522925	 1.5991965343	 0.3626086356	 0.127077
H	-0.0822715614	 2.0865495069	-0.7180936358	 0.119264
H	-0.3921821726	 1.8724819	 1.0095133911	 0.120627
H	 0.058149231	-0.5765643042	 0.8189698547	 0.120677
H	-1.2583217941	-0.1106613498	-0.2537038778	 0.110734
H	 0.4579557546	-0.0128981116	-2.1895385037	 0.114652
H	 2.8000033862	-0.9389463077	-1.7315691134	 0.129155
H	 1.4312322156	-3.8367101407	-0.4836693112	 0.135521
H	 0.2502954693	-2.8939789094	 0.4881045398	 0.123042
66.5634	127.5873	145.6943	201.158	211.7023	264.6252	321.5094	408.5561	505.5523	545.8584	595.5821	617.3591	747.8426	788.5157	840.0106	905.551	934.6135	955.7275	994.0077	1023.1452	1032.5206	1082.7908	1087.0609	1119.5921	1130.3724	1161.7069	1228.5619	1260.9353	1288.4121	1315.1028	1341.2749	1378.895	1411.9825	1461.5654	1483.0306	1498.4181	1505.1384	1516.0633	2343.0956	3036.0729	3041.7639	3046.8678	3086.022	3103.2264	3109.3128	3113.1882	3134.5192	3187.7664
CCC1C2OCC12C#N	CC[C@H]1[C@H]2OC[C@@]12C#N	
InChI=1S/C7H9NO/c1-2-5-6-7(5,3-8)4-9-6/h5-6H,2,4H2,1H3	InChI=1S/C7H9NO/c1-2-5-6-7(5,3-8)4-9-6/h5-6H,2,4H2,1H3/t5-,6+,7-/m0/s1
