16
gdb 32302	2.70504	1.54739	0.99053	4.0408	77.3	-0.1987	-0.0215	0.1772	1145.0793	0.126214	-437.945227	-437.937481	-437.936536	-437.977533	29.447	
C	 0.0718571248	 1.3887540844	 0.0068864216	-0.243631
O	-0.0154366325	-0.0224740255	 0.0033404703	-0.233597
C	-1.2462379215	-0.5740618413	 0.0114029832	 0.223347
C	-2.4373591834	 0.0962399485	 0.0227444084	-0.225219
C	-3.6779503045	-0.6103763742	 0.0301660729	-0.156285
C	-3.6637317357	-1.9649307027	 0.0255903829	 0.015219
N	-2.4657749324	-2.6284700375	 0.0142984008	-0.363802
C	-1.1963933519	-2.0445033293	 0.0068865335	 0.381877
O	-0.1877395471	-2.7275001163	-0.0042980589	-0.3873
H	 1.1361430825	 1.6270542933	-0.0006005452	 0.142378
H	-0.4050284468	 1.8235693196	-0.8815895071	 0.124267
H	-0.3912711899	 1.8182177706	 0.9051870733	 0.124262
H	-2.4555507466	 1.1793422179	 0.0261738074	 0.105076
H	-4.6162043083	-0.0727577505	 0.0390567681	 0.104197
H	-4.5522740055	-2.5824945508	 0.0302783742	 0.128496
H	-2.4422706212	-3.6386270562	 0.0106440544	 0.260715
103.5233	147.8964	230.848	242.9313	303.6359	355.7213	451.0552	511.3894	563.4441	567.1859	574.1661	695.3873	751.7654	757.5333	791.2488	888.3864	892.3044	911.1469	1052.4536	1072.645	1125.0211	1178.1181	1180.4728	1214.1132	1258.4271	1289.947	1375.0345	1443.8234	1473.3904	1490.7574	1491.0397	1506.0063	1602.8365	1670.5087	1780.4237	3001.2832	3059.5307	3140.6271	3198.8907	3213.6801	3232.4095	3610.3735
COC1=CC=CNC1=O	COc1ccc[nH]c1=O	
InChI=1S/C6H7NO2/c1-9-5-3-2-4-7-6(5)8/h2-4H,1H3,(H,7,8)	InChI=1S/C6H7NO2/c1-9-5-3-2-4-7-6(5)8/h2-4H,1H3,(H,7,8)
