14
gdb 20401	4.90934	2.112	1.50813	3.4194	62.73	-0.2097	0.0231	0.2328	785.0717	0.111075	-378.73332	-378.727199	-378.726255	-378.763674	23.181	
C	 0.0255587756	 1.3590062512	-0.1049980981	-0.085132
C	 1.502731496	 1.8719848422	 0.0300366766	-0.390437
C	 2.1417761727	 0.6658763977	 0.6462646308	 0.168315
C	 3.2670369321	 0.0975242788	 1.1926600917	-0.207225
N	 2.9413377728	-1.2051030888	 1.4353176949	-0.193165
N	 1.658520066	-1.5346015018	 1.0861428782	-0.351793
C	 1.2177262629	-0.389026457	 0.6129748637	 0.439028
O	 0.0130588342	-0.0827124779	 0.0826491554	-0.270166
H	-0.6123408843	 1.8012266878	 0.6681416654	 0.118472
H	-0.4130773744	 1.5656698025	-1.0832390446	 0.121563
H	 1.9291388493	 2.120842665	-0.9488829553	 0.121881
H	 1.5435880447	 2.777811368	 0.6420210058	 0.119993
H	 4.2479134759	 0.4801962759	 1.4274970037	 0.13507
H	 3.5130665865	-1.9087335038	 1.8673861115	 0.273596
97.0651	228.8325	301.0142	375.6177	477.7064	630.1013	642.4544	708.3357	734.3675	776.3454	784.1657	845.1939	934.1518	965.4023	1005.4524	1052.4913	1076.5428	1132.6424	1194.7998	1206.4922	1239.8719	1278.1479	1326.7347	1370.0913	1467.4613	1470.4978	1495.9633	1512.4208	1555.6104	1656.0667	3031.0162	3041.8388	3076.2112	3112.4819	3256.7146	3696.005
C1CC2=CNN=C2O1	C1Cc2c[nH]nc2O1	
InChI=1S/C5H6N2O/c1-2-8-5-4(1)3-6-7-5/h3H,1-2H2,(H,6,7)	InChI=1S/C5H6N2O/c1-2-8-5-4(1)3-6-7-5/h3H,1-2H2,(H,6,7)
