17
gdb 56732	2.43003	1.39867	1.06045	1.1691	72.88	-0.2662	-0.0435	0.2227	1145.7956	0.1346	-418.006916	-417.997756	-417.996812	-418.04104	32.932	
C	 0.4772712258	 1.6408243557	-0.1704639401	-0.402462
C	 0.0861626243	 0.1580599357	 0.0267408113	-0.235055
C	 0.3988560239	-0.6109701406	-1.1796223588	 0.266003
N	 0.6831022453	-1.2138403257	-2.1243986604	-0.329516
C	 0.7550497631	-0.4532951264	 1.2621399172	 0.205495
C	 1.2037749202	-1.8852060807	 1.299394406	-0.277035
N	 2.1890130362	-0.8083274046	 1.2791035746	-0.339584
C	 0.2743108708	 0.096824128	 2.5675115401	 0.145591
O	-0.712981382	 0.7770070182	 2.6947842126	-0.270197
H	 1.5575190088	 1.7450054377	-0.3032512313	 0.135376
H	-0.0181140513	 2.0510064016	-1.0531945021	 0.14168
H	 0.1677375298	 2.2150751045	 0.7035611593	 0.15726
H	-0.9964784199	 0.1083158231	 0.1916761806	 0.153405
H	 1.1453506243	-2.4400387346	 2.2317711506	 0.1326
H	 1.0390489348	-2.470354996	 0.39982682	 0.158372
H	 2.5743200139	-0.7087697185	 0.3412902832	 0.254613
H	 0.9109141718	-0.1980620775	 3.4286471871	 0.103456
56.8189	137.6581	155.2867	195.0737	216.3835	227.9892	277.3532	343.5052	362.2717	458.1372	501.7557	578.8967	625.8702	711.2221	812.1407	881.0713	902.9565	958.4277	980.7933	1031.7409	1046.422	1065.4337	1095.2182	1129.5179	1154.4323	1254.6624	1268.8736	1314.7322	1325.4308	1379.2171	1408.7316	1418.6692	1494.493	1503.7616	1505.698	1817.5911	2353.3154	2917.264	3052.7133	3059.5049	3115.9786	3132.0553	3155.3681	3208.4555	3489.8558
CC(C#N)C1(CN1)C=O	C[C@@H](C#N)[C@]1(CN1)C=O	
InChI=1S/C6H8N2O/c1-5(2-7)6(4-9)3-8-6/h4-5,8H,3H2,1H3	InChI=1S/C6H8N2O/c1-5(2-7)6(4-9)3-8-6/h4-5,8H,3H2,1H3/t5-,6-/m0/s1
