21
gdb 117759	2.56897	1.03111	0.89117	5.1657	79.89	-0.2584	0.0385	0.2969	1436.0297	0.180465	-420.405683	-420.394679	-420.393735	-420.441828	38.868	
C	 0.051230053	 1.5636866283	 0.0424036559	-0.395474
C	-0.0385205633	 0.0373211771	-0.0068691871	-0.203374
C	-1.4828150583	-0.5194651604	-0.0129528932	 0.0524
N	-2.2078700433	-0.0076124547	-1.1820704947	-0.519378
C	-1.4383305066	-2.0646399174	 0.0333805612	-0.078956
O	-2.7562708475	-2.5384797849	-0.0811791209	-0.239128
C	-2.8567250519	-3.9436942626	-0.0198542039	-0.231161
C	-2.1918876265	-0.052280991	 1.1997962091	 0.328739
N	-2.7132781464	 0.3029237192	 2.1674553955	-0.352251
H	 1.0964245164	 1.8826120986	-0.0031753334	 0.113394
H	-0.4879983174	 2.014008703	-0.7937911881	 0.138969
H	-0.381551245	 1.9517032913	 0.9688360534	 0.144443
H	 0.45098217	-0.3404284021	-0.9141329904	 0.09921
H	 0.4973388423	-0.4008963632	 0.8423531822	 0.115301
H	-1.680702246	-0.2497498525	-2.0177484854	 0.22847
H	-3.0956041908	-0.4985849486	-1.2480503788	 0.251052
H	-0.8161064027	-2.4231036314	-0.8052353727	 0.084987
H	-0.9735995747	-2.409929424	 0.9708161677	 0.102792
H	-3.9144151582	-4.1972708812	-0.1174063156	 0.136719
H	-2.2956006786	-4.4266261097	-0.8348999542	 0.107183
H	-2.4824452443	-4.3346603637	 0.9379265832	 0.116063
67.5995	100.1363	109.775	138.1936	166.5471	203.4072	226.219	237.593	268.825	302.7901	342.4019	386.2751	407.3022	462.571	591.0137	642.3481	731.2617	799.8692	889.9118	905.6166	978.6032	998.3478	1040.9839	1060.0955	1079.0476	1153.6091	1169.6247	1181.4277	1209.6786	1231.9637	1264.1355	1292.1862	1362.7068	1375.3388	1405.1374	1416.8343	1478.04	1482.7611	1486.3329	1494.4491	1499.1703	1510.4126	1521.0857	1658.629	2360.0081	2950.2405	2979.7163	2996.2178	3024.2892	3029.084	3050.5791	3070.7068	3118.5058	3123.9996	3135.8793	3481.0526	3564.5621
CCC(N)(COC)C#N	CC[C@@](N)(COC)C#N	
InChI=1S/C6H12N2O/c1-3-6(8,4-7)5-9-2/h3,5,8H2,1-2H3	InChI=1S/C6H12N2O/c1-3-6(8,4-7)5-9-2/h3,5,8H2,1-2H3/t6-/m0/s1
