23
gdb 63638	3.31503	0.90785	0.86196	2.0438	86.22	-0.2409	0.0781	0.319	1483.0707	0.204676	-388.261483	-388.251625	-388.250681	-388.296871	36.492	
C	-0.017626681	 1.536596643	-0.2479362861	-0.456331
C	-0.0112981761	 0.0331270623	-0.0395637985	 0.339879
C	-1.2610497272	-0.6548780645	-0.559308486	-0.446903
C	 1.2983817086	-0.7103368735	-0.1665958983	-0.345502
C	 0.6393929202	-0.5728696109	 1.191786062	-0.043026
C	 1.2738393454	 0.2311042248	 2.2925030769	-0.039648
C	 0.4191482717	 0.5826685443	 3.535462343	-0.086048
O	 1.3868084136	-0.0063656398	 4.4264676658	-0.272662
C	 2.1562355003	-0.5207251032	 3.3210077583	-0.086441
H	 0.9092980649	 2.0098022009	 0.0853320956	 0.115274
H	-0.1391749048	 1.7728563613	-1.3116187759	 0.115651
H	-0.848574153	 2.0096016089	 0.2892606463	 0.114673
H	-1.3860697777	-0.4827199391	-1.6351290969	 0.113761
H	-1.2206242266	-1.7366327168	-0.3979222095	 0.112221
H	-2.1593749249	-0.27568151	-0.0574873565	 0.113869
H	 1.3035166575	-1.6846548353	-0.6443864301	 0.107087
H	 2.1956067937	-0.1255130164	-0.3471344346	 0.10532
H	 0.1478155495	-1.4731837503	 1.5580737139	 0.077632
H	 1.7869287398	 1.1081701213	 1.8928255364	 0.075126
H	 0.2596170928	 1.6471318818	 3.7446281321	 0.099248
H	-0.5488888364	 0.0633349816	 3.579022437	 0.093394
H	 2.0948788502	-1.6160631016	 3.2518600227	 0.094168
H	 3.2109260697	-0.2275506387	 3.3807162522	 0.09926
52.4065	63.7813	118.2413	169.4607	200.3507	231.1	294.5058	345.5222	362.6132	373.4197	414.2702	499.3733	701.3314	729.5575	845.6839	874.8269	895.4286	916.0906	925.0029	956.9139	968.8811	994.2051	1030.6834	1038.2471	1046.7549	1062.8798	1076.6566	1098.7843	1134.9131	1156.3093	1160.0813	1163.1523	1223.9444	1257.1796	1276.5675	1307.138	1319.1735	1341.6584	1380.225	1410.3747	1424.0243	1442.6862	1481.4493	1490.8389	1493.1377	1501.1003	1511.4945	1514.4034	1537.6012	2992.6144	3004.137	3018.4585	3024.6039	3047.8624	3050.4982	3076.8372	3079.8544	3085.2049	3096.8858	3110.876	3114.9478	3121.1322	3204.0992
CC1(C)CC1C1COC1	CC1(C)C[C@H]1C1COC1	
InChI=1S/C8H14O/c1-8(2)3-7(8)6-4-9-5-6/h6-7H,3-5H2,1-2H3	InChI=1S/C8H14O/c1-8(2)3-7(8)6-4-9-5-6/h6-7H,3-5H2,1-2H3/t7-/m0/s1
