21
gdb 66308	4.37773	0.60223	0.57936	3.0212	80.41	-0.249	-0.0207	0.2284	1927.8454	0.179234	-424.222563	-424.212187	-424.211243	-424.259613	36.372	
C	 0.3540348611	 1.550293635	-0.3768018774	-0.462897
C	 0.0378620061	 0.0865830857	-0.1530918724	 0.426375
C	-1.3937376741	-0.3609963056	-0.3980696809	-0.262254
C	-2.3932208166	 0.2310555948	 0.6061581596	-0.192763
C	-3.8190370732	-0.3104955142	 0.4053721872	-0.275064
C	-4.7673141158	 0.2043436334	 1.4637254835	 0.158017
O	-5.7854270498	 0.8090901516	 1.2469617361	-0.237292
C	 1.1211812769	-0.9042964884	-0.2474330048	-0.230168
O	 0.630831312	-0.482267168	 1.0278052577	-0.277003
H	 1.4073117574	 1.7502889285	-0.1666258761	 0.12901
H	 0.1439487786	 1.838747838	-1.4124822297	 0.121913
H	-0.2458958371	 2.1902278327	 0.277728115	 0.130388
H	-1.6873252814	-0.0912803116	-1.4210728226	 0.102543
H	-1.4326268676	-1.4543812661	-0.3344153342	 0.102477
H	-2.0472899324	-0.000696535	 1.6208762798	 0.12309
H	-2.412653697	 1.3237661089	 0.5217907594	 0.113178
H	-4.2181036371	-0.0471404666	-0.5788908071	 0.119838
H	-3.8003945949	-1.4077170283	 0.4835915016	 0.118502
H	-4.4442430023	-0.0149460695	 2.5093350817	 0.072087
H	 0.8931363407	-1.9344547253	-0.5195961218	 0.109263
H	 2.1320760367	-0.5778943302	-0.4900229646	 0.11076
40.5608	50.6567	90.6119	107.6129	139.097	187.8278	257.2838	302.7036	360.098	376.0805	431.4921	483.9143	535.2212	726.6672	747.7934	800.4767	851.6962	899.5583	912.8392	928.5685	995.3622	1010.5736	1045.396	1078.8066	1099.929	1128.5411	1136.2273	1167.7189	1186.9298	1252.7748	1267.5183	1301.2641	1332.2741	1340.4609	1384.3047	1408.7114	1425.736	1429.8396	1464.9194	1471.2894	1487.8843	1498.3596	1503.5221	1532.7259	1836.8884	2850.3048	3008.5472	3021.0422	3034.2455	3039.7497	3058.5268	3076.6715	3078.7049	3097.6826	3103.7507	3125.1746	3161.3538
CC1(CCCC=O)CO1	C[C@@]1(CCCC=O)CO1	
InChI=1S/C7H12O2/c1-7(6-9-7)4-2-3-5-8/h5H,2-4,6H2,1H3	InChI=1S/C7H12O2/c1-7(6-9-7)4-2-3-5-8/h5H,2-4,6H2,1H3/t7-/m1/s1
