16
gdb 68270	2.49012	1.49969	1.45302	3.5248	69.46	-0.277	0.0125	0.2896	995.6991	0.122459	-437.832886	-437.824731	-437.823787	-437.865257	31.338	
C	 0.0157990406	 1.4606108632	 0.1394473975	-0.518502
C	-0.0074273824	-0.017938146	-0.0585273048	 0.338356
C	 0.712972926	-0.9373392011	-1.0700901191	-0.293186
C	 0.051726811	-1.8359185316	-0.0122294705	-0.01464
O	 0.511541149	-0.8986033505	 1.0414850591	-0.370471
C	-1.261244714	-0.984403657	-0.0816352887	 0.318193
O	-2.0793919843	-0.9743826227	 1.0374620684	-0.480404
C	-2.0838112348	-1.0393426151	-1.2864945564	 0.245779
N	-2.6961647151	-1.073830086	-2.2655101393	-0.337194
H	 1.0340715102	 1.8062727988	 0.3387563957	 0.145022
H	-0.3552418758	 1.962160708	-0.7593532075	 0.14917
H	-0.6243855051	 1.7408768847	 0.9812416513	 0.143571
H	 0.3412978819	-0.9733569469	-2.0953389812	 0.13794
H	 1.799936598	-0.904578164	-1.0060132793	 0.124048
H	 0.1574332162	-2.902298054	 0.1818888119	 0.116597
H	-1.4576081814	-0.9525742098	 1.7826171327	 0.295722
121.9568	162.6865	184.3205	205.2772	306.2206	333.3186	401.5709	494.9923	518.8971	545.5268	578.2709	586.3752	652.5671	719.609	752.8635	820.0785	878.5528	925.5217	955.6196	1015.2269	1031.6713	1054.4058	1112.7051	1150.6509	1197.0299	1200.7968	1231.8884	1259.9479	1330.6879	1400.8056	1419.8664	1475.1613	1483.3401	1493.2327	2362.5889	3044.0643	3087.6208	3120.2255	3123.2356	3139.1849	3167.6991	3706.8795
CC12CC(O1)C2(O)C#N	C[C@@]12C[C@@H](O1)[C@]2(O)C#N	
InChI=1S/C6H7NO2/c1-5-2-4(9-5)6(5,8)3-7/h4,8H,2H2,1H3	InChI=1S/C6H7NO2/c1-5-2-4(9-5)6(5,8)3-7/h4,8H,2H2,1H3/t4-,5+,6-/m1/s1
