19
gdb 82298	2.28546	1.72896	1.35888	2.3436	69.87	-0.2566	0.0615	0.3181	1019.0754	0.158291	-460.150332	-460.141754	-460.140809	-460.182794	33.979	
C	 0.6951348889	 1.3193149861	-0.2683712551	-0.43082
C	 0.0166291557	-0.0310497312	-0.0426509817	 0.317022
O	-1.3818200628	 0.1552719805	 0.1950364658	-0.486151
C	 0.2913538635	-1.0289288181	-1.2085329395	-0.304317
C	 1.4668286536	-1.863408332	-0.7366328293	 0.047964
O	 2.5590403769	-1.0850090081	-0.2267672447	-0.25158
C	 1.6503740199	-1.6838869556	 0.7079980135	 0.021415
C	 0.5567405639	-0.7755701785	 1.2183767951	 0.102587
O	 1.0041525644	 0.0528758207	 2.2697256388	-0.438868
H	 1.7665280725	 1.1905977146	-0.4258389451	 0.153942
H	 0.2701962619	 1.8034361642	-1.1571937533	 0.094488
H	 0.5442481741	 1.9759747706	 0.591218987	 0.112139
H	-1.7113039771	 0.7877019376	-0.4521169542	 0.275665
H	-0.5849025173	-1.6729478665	-1.3405988424	 0.112024
H	 0.4866717471	-0.522984915	-2.1599097647	 0.103489
H	 1.7496740658	-2.7755537676	-1.2556573518	 0.096808
H	 2.0824412521	-2.4362262025	 1.3617429168	 0.101553
H	-0.262956031	-1.427000413	 1.5636578315	 0.081923
H	 0.234346818	 0.5166853436	 2.6158797033	 0.290718
112.5234	214.3438	237.5892	270.9742	283.4373	301.0143	356.1097	366.4809	388.8495	428.2446	474.1879	564.8752	649.6471	673.1263	797.16	815.1406	874.1295	896.4197	934.5172	960.4146	970.0285	1002.7789	1055.23	1099.2033	1100.5696	1138.503	1157.8379	1187.6302	1218.4234	1244.8919	1271.7682	1288.038	1328.5342	1347.8051	1381.9302	1403.6547	1442.354	1449.4565	1474.7666	1488.0829	1505.6712	2973.2411	3026.1297	3042.3168	3088.2688	3110.2709	3146.0692	3154.4035	3161.8196	3809.4024	3813.453
CC1(O)CC2OC2C1O	C[C@@]1(O)C[C@H]2O[C@H]2[C@H]1O	
InChI=1S/C6H10O3/c1-6(8)2-3-4(9-3)5(6)7/h3-5,7-8H,2H2,1H3	InChI=1S/C6H10O3/c1-6(8)2-3-4(9-3)5(6)7/h3-5,7-8H,2H2,1H3/t3-,4-,5-,6-/m1/s1
