18
gdb 31808	4.6624	1.00057	0.87755	1.6137	84.99	-0.2162	-0.0339	0.1823	1348.8734	0.149586	-398.195159	-398.186701	-398.185757	-398.22865	31.913	
C	 0.0411045987	 1.528994043	-0.2017644412	-0.368045
C	-0.0125742474	 0.0175740234	 0.0716815638	-0.270916
C	-1.4167521119	-0.5297058113	 0.0332514301	 0.299746
C	-1.857793713	-1.4097999986	-0.951519313	-0.072387
N	-3.1015042223	-1.892879028	-1.0022546726	-0.311153
C	-3.9414641364	-1.482770634	-0.0505608856	 0.360448
N	-5.2482939115	-1.9207708756	-0.1191591768	-0.568191
C	-3.5066557109	-0.5946581041	 0.955148367	-0.073297
N	-2.2696676591	-0.1319522709	 0.9950273528	-0.281902
H	 1.064971497	 1.9060417126	-0.1176056514	 0.10967
H	-0.3252048225	 1.7606794721	-1.2072953927	 0.114334
H	-0.5847817749	 2.0650599096	 0.5169207197	 0.135553
H	 0.6049988624	-0.5181672161	-0.6578319127	 0.098544
H	 0.4157833215	-0.1828421794	 1.0609049104	 0.113702
H	-1.1790390384	-1.7483972629	-1.7315317671	 0.104369
H	-5.3800094194	-2.7290245418	-0.709120977	 0.257
H	-5.767198921	-1.9473511555	 0.7443940153	 0.254062
H	-4.1902676109	-0.2662028925	 1.736471961	 0.098463
47.5083	97.9903	206.763	225.556	318.646	371.7097	404.8826	418.1026	435.2429	509.8931	529.2334	610.1727	659.874	750.7652	786.8973	817.0135	886.5173	914.6034	961.6932	980.3211	1040.0333	1055.8473	1084.5655	1099.2433	1248.7285	1257.1787	1290.216	1332.1585	1354.5122	1363.1502	1402.9455	1421.8071	1479.7521	1495.7343	1507.9099	1524.478	1582.0869	1622.7269	1644.4831	3032.2867	3037.2912	3071.029	3106.3238	3121.4424	3133.9124	3149.2255	3577.1314	3691.1629
CCC1=CN=C(N)C=N1	CCc1cnc(N)cn1	
InChI=1S/C6H9N3/c1-2-5-3-9-6(7)4-8-5/h3-4H,2H2,1H3,(H2,7,9)	InChI=1S/C6H9N3/c1-2-5-3-9-6(7)4-8-5/h3-4H,2H2,1H3,(H2,7,9)
