17
gdb 92900	2.37611	1.66222	1.05397	1.7509	69.63	-0.2626	-0.0386	0.224	1103.9807	0.135712	-458.98875	-458.980454	-458.97951	-459.02159	31.662	
O	 0.0583100348	 1.3894648481	 0.0346062582	-0.439206
C	 0.0178910578	-0.0090131143	-0.0118820377	 0.046621
C	-1.4319535865	-0.5552336702	 0.0352465799	-0.282864
C	-1.5138758909	-2.0095227444	-0.3454895591	-0.067999
C	-0.5555311864	-2.6713821731	-0.991451155	-0.08212
C	 0.7605101631	-2.0490463858	-1.4130385561	 0.021163
O	 1.1030510629	-2.4140942278	-2.7273761501	-0.440599
C	 0.6721227817	-0.5412210471	-1.2680267771	 0.323729
O	 1.0570583889	 0.2031883299	-2.147702584	-0.356705
H	 0.4222971184	 1.6727584127	-0.8181104438	 0.29515
H	 0.5626750589	-0.4269385558	 0.8495758713	 0.105986
H	-1.8409836415	-0.3860960793	 1.0370690109	 0.125135
H	-2.0428341828	 0.0522453738	-0.6460793642	 0.132822
H	-2.4301039571	-2.5300879522	-0.0782644686	 0.104166
H	-0.6739568783	-3.716128219	-1.2623519269	 0.112996
H	 1.5531918326	-2.3892157073	-0.7192218048	 0.105986
H	 1.3269082544	-1.5874472981	-3.1809011729	 0.295739
87.1299	112.5211	235.8957	288.4165	334.4949	348.4912	373.0433	382.9902	432.4187	457.3024	511.4962	631.3384	657.056	704.7838	825.9472	865.5365	941.6695	967.179	1002.1478	1025.7836	1049.9748	1067.5119	1147.7961	1155.6871	1165.7092	1201.8432	1266.3506	1276.8333	1320.937	1338.086	1356.8642	1402.2958	1430.6629	1443.6048	1482.3917	1720.2971	1791.1136	2917.9592	2985.6809	3025.5992	3070.3015	3156.4172	3185.6612	3707.6073	3717.7385
OC1CC=CC(O)C1=O	O[C@H]1CC=C[C@@H](O)C1=O	
InChI=1S/C6H8O3/c7-4-2-1-3-5(8)6(4)9/h1-2,4-5,7-8H,3H2	InChI=1S/C6H8O3/c7-4-2-1-3-5(8)6(4)9/h1-2,4-5,7-8H,3H2/t4-,5+/m1/s1
