23
gdb 94942	2.78594	1.28914	1.17598	1.4237	85.63	-0.2398	0.0842	0.324	1219.0971	0.205418	-388.29789	-388.288518	-388.287574	-388.331257	36.472	
C	 0.4580161091	 1.4195344445	-0.3142392136	-0.396958
C	-0.0930501823	 0.0502443216	 0.0860445174	 0.105941
O	 0.0734232527	-0.9074074673	-0.9719042888	-0.271319
C	 1.2256785561	-1.7137694637	-0.7284771596	-0.112144
C	 1.4821085097	-1.6681654617	 0.7646582551	-0.105652
C	 0.6263576728	-0.5336492949	 1.2915666126	-0.094958
C	 0.3392317128	-1.9603007267	 1.7162314601	 0.312809
C	-0.9104656426	-2.6970969809	 1.265057812	-0.473026
C	 0.7528747286	-2.3057946267	 3.1381004861	-0.451719
H	 1.543824893	 1.3819629815	-0.4507494709	 0.115761
H	 0.0033160683	 1.7461809232	-1.2533965263	 0.12195
H	 0.2366286202	 2.1670499163	 0.4552899188	 0.110832
H	-1.1768331424	 0.1303511107	 0.2421917421	 0.079951
H	 1.005542892	-2.7149052188	-1.1179717825	 0.103976
H	 2.1031076335	-1.3276939601	-1.2705830688	 0.092688
H	 2.5001521601	-1.8179541244	 1.1083104286	 0.080872
H	 1.0051225007	 0.1621993761	 2.0330410003	 0.079206
H	-1.1999655159	-2.4452050445	 0.2441497174	 0.145599
H	-0.7522079093	-3.780875675	 1.318132603	 0.108719
H	-1.7522468566	-2.4614428393	 1.9271680733	 0.109474
H	-0.0429056225	-2.055343542	 3.8494721418	 0.114173
H	 0.9583644004	-3.3782096903	 3.2364259238	 0.114225
H	 1.6544624814	-1.7640484076	 3.4414147079	 0.109601
116.8833	169.8147	200.4597	214.8425	217.2902	237.6624	273.7359	302.6802	357.2598	403.5781	448.3526	505.0353	671.802	721.466	741.4027	819.848	838.7277	858.913	945.4568	970.8446	979.3682	982.9766	1006.9231	1028.9747	1050.6543	1062.0677	1091.6093	1124.25	1130.031	1145.5216	1158.9164	1220.8399	1232.0561	1297.9417	1314.9311	1334.0505	1377.5833	1378.7294	1401.3564	1407.3052	1419.6464	1440.8377	1486.9786	1488.9129	1491.1682	1494.3086	1510.6145	1513.1263	1524.0837	2978.7278	3016.8427	3019.3706	3025.8983	3033.7146	3045.7665	3075.0703	3081.6079	3096.0703	3103.3606	3118.038	3136.9431	3157.5906	3167.1703
CC1OCC2C1C2(C)C	C[C@H]1OC[C@H]2[C@@H]1C2(C)C	
InChI=1S/C8H14O/c1-5-7-6(4-9-5)8(7,2)3/h5-7H,4H2,1-3H3	InChI=1S/C8H14O/c1-5-7-6(4-9-5)8(7,2)3/h5-7H,4H2,1-3H3/t5-,6+,7-/m1/s1
