16
gdb 8696	2.71647	1.70205	1.32094	5.1989	60.87	-0.2779	0.0263	0.3042	967.2643	0.12995	-417.055537	-417.046654	-417.04571	-417.088755	32.106	
N	-0.2087107721	 1.3986792846	 0.247490634	-0.5287
C	 0.0782789562	-0.0044138879	-0.0559157103	-0.20691
C	 0.8880670122	-0.5904805075	 1.123838243	 0.186457
O	 0.2399828125	-0.2756645155	 2.3381616542	-0.45427
C	 0.9882364029	-2.1227427963	 1.0690902504	-0.070896
O	 1.6665050921	-2.6357224012	 2.1868127857	-0.414342
C	 2.2470163587	 0.0169965747	 1.1043943648	 0.271856
N	 3.2750784943	 0.5422622811	 1.0504468222	-0.342767
H	 0.5921678142	 1.9843235064	 0.031600738	 0.256369
H	-0.9925098991	 1.7386266075	-0.2964835771	 0.248139
H	-0.8714127375	-0.5464600886	-0.1001102734	 0.121891
H	 0.6148673365	-0.1716334955	-1.0000038878	 0.115574
H	-0.1254595631	 0.615977166	 2.1987062932	 0.296792
H	-0.0406458209	-2.5088529441	 0.9953169048	 0.097648
H	 1.5429332429	-2.4357834181	 0.1793958053	 0.121909
H	 1.2373665702	-2.2619275755	 2.966137303	 0.301251
104.3041	109.1605	162.9492	190.3444	213.9614	289.9299	319.1782	398.6508	411.2887	449.2491	470.0289	592.4061	601.7769	684.2826	712.4435	856.0623	909.9947	967.7504	1015.7315	1079.5042	1087.8745	1106.3198	1156.33	1215.9557	1266.2879	1331.9443	1371.0636	1408.2736	1419.759	1436.5733	1487.3174	1496.7675	1654.925	2348.8368	2983.5129	3009.3041	3085.3535	3091.2469	3513.3025	3600.2273	3637.5954	3793.5561
NCC(O)(CO)C#N	NC[C@@](O)(CO)C#N	
InChI=1S/C4H8N2O2/c5-1-4(8,2-6)3-7/h7-8H,1,3,5H2	InChI=1S/C4H8N2O2/c5-1-4(8,2-6)3-7/h7-8H,1,3,5H2/t4-/m0/s1
