18
gdb 68419	2.61294	1.87032	1.43015	2.0172	70.85	-0.2275	0.0594	0.2869	950.3558	0.148566	-439.019336	-439.011952	-439.011007	-439.050737	30.039	
O	-0.158052729	 1.3848335632	 0.1161527634	-0.481022
C	 0.0131653556	 0.0124924443	 0.071146471	 0.291069
C	 0.819822727	-0.7981092772	-0.9888334894	-0.248109
N	 0.7504560803	-1.9304750363	 0.0185812854	-0.127311
C	 0.8223878034	-0.8535288268	 1.0836546339	-0.245529
C	-0.7239788149	-2.1989453085	 0.0248551101	-0.268844
C	-1.2933715078	-0.7709755662	 0.0434652828	 0.464558
C	-2.5763370442	-0.2898568609	 0.5458802658	-0.288112
O	-2.3122140035	-0.3854197361	-0.8660196935	-0.293194
H	 0.7050134612	 1.809012908	 0.0823461728	 0.28653
H	 0.364538197	-1.0031551511	-1.9606899337	 0.120964
H	 1.8553449166	-0.4677176433	-1.10676067	 0.10118
H	 1.856029228	-0.5227904914	 1.2174565362	 0.102624
H	 0.376199042	-1.1159787419	 2.0470288152	 0.106457
H	-1.0197715806	-2.7382674542	-0.8783117888	 0.125155
H	-0.9880369487	-2.7966437194	 0.9009240734	 0.113487
H	-3.30986929	-0.9975465024	 0.9310460891	 0.11185
H	-2.6534121724	 0.7256031302	 0.9297153663	 0.128246
129.2336	234.9533	264.8199	281.2517	369.6131	417.3858	448.0458	457.9213	555.1906	581.712	648.9118	728.824	833.4355	857.8156	860.2944	877.2993	943.6995	954.348	971.5579	1008.3664	1037.4865	1053.7174	1108.3804	1116.1978	1127.3225	1167.7445	1185.2215	1210.1154	1210.9618	1230.3401	1236.7712	1303.0356	1306.8185	1376.9132	1456.2554	1490.2458	1493.286	1526.041	1539.6966	3049.7106	3057.7792	3066.0676	3083.5186	3113.3308	3118.6446	3124.202	3174.7478	3823.8566
OC12CN(C1)CC21CO1	O[C@@]12CN(C1)C[C@]12CO1	
InChI=1S/C6H9NO2/c8-5-1-7(2-5)3-6(5)4-9-6/h8H,1-4H2	InChI=1S/C6H9NO2/c8-5-1-7(2-5)3-6(5)4-9-6/h8H,1-4H2/t6-/m1/s1
