15
gdb 132426	3.19248	1.38035	0.9695	3.8033	75.02	-0.2077	-0.0458	0.1619	1140.2982	0.113608	-458.139638	-458.131894	-458.13095	-458.171937	29.288	
C	 0.0714577001	 1.5051760633	 0.0422696265	-0.496374
C	-0.0510969291	 0.0165060576	-0.0559801151	 0.382838
C	 0.0803831784	-0.6986021166	-1.2026240715	-0.151133
N	-0.0449332429	-2.0740691781	-1.2234572488	-0.292182
C	-0.2905100569	-2.6692112683	-0.1272531763	 0.266973
F	-0.4155476694	-3.9943026569	-0.1220645314	-0.067619
C	-0.4610349988	-2.0493661333	 1.1929128506	 0.257951
N	-0.7078980267	-2.6058264488	 2.3181630488	-0.561368
N	-0.3163200673	-0.6685783014	 1.1048558903	-0.388913
H	 0.8816795314	 1.7927471888	 0.722692368	 0.144171
H	 0.2814398909	 1.9343681251	-0.9385564312	 0.150128
H	-0.8531555329	 1.9553799037	 0.422452062	 0.144168
H	 0.2892241441	-0.2151887753	-2.1471103068	 0.116863
H	-0.7807207331	-3.612967035	 2.1941907955	 0.229378
H	-0.4212499378	-0.1727980849	 1.9793278695	 0.26512
113.8413	157.6949	163.4553	289.7477	326.9557	385.5361	432.9364	479.9641	530.1793	589.6463	601.109	667.3552	704.4934	764.6126	779.6171	819.8232	825.2196	1004.9315	1038.1447	1065.0503	1121.1541	1207.6824	1240.6277	1300.2468	1370.7943	1393.4722	1417.8174	1473.7357	1477.1011	1510.4844	1622.8405	1680.0559	1708.9709	3029.0241	3080.4874	3140.2032	3221.425	3527.1142	3604.7406
CC1=CN=C(F)C(=N)N1	CC1=CN=C(F)[C@@H]([NH])N1	
InChI=1S/C5H6FN3/c1-3-2-8-4(6)5(7)9-3/h2H,1H3,(H2,7,9)	InChI=1S/C5H7FN3/c1-3-2-8-4(6)5(7)9-3/h2,5,7,9H,1H3/t5-/m0/s1
