17
gdb 46292	3.23655	1.3007	1.22554	3.9937	72.48	-0.2556	0.0092	0.2648	1069.8393	0.137332	-421.864118	-421.856613	-421.855669	-421.896652	28.386	
O	-0.5154252528	 0.1868325299	-0.1302065282	-0.335702
C	-0.217140799	 1.31974571	 0.0749984714	 0.426306
O	-1.0088830481	 2.3235445918	 0.5714514911	-0.246863
C	 0.0902480522	 3.2903055401	 0.4949187047	-0.123011
C	 1.0287069229	 2.198879123	-0.0680036128	 0.126157
C	 2.2582006775	 1.7998829417	 0.7897994615	-0.334356
C	 3.4330010532	 2.2008722281	-0.0685814187	-0.062178
C	 3.0643361989	 2.5220513409	-1.3059086478	-0.062178
C	 1.5738760343	 2.3960635333	-1.5069576795	-0.334356
H	-0.164406992	 4.1076944687	-0.1835237173	 0.122518
H	 0.333734421	 3.6737038585	 1.4883865267	 0.122518
H	 2.2480608267	 2.2889261401	 1.7707706073	 0.112891
H	 2.2621133245	 0.7182879808	 0.9813525405	 0.136094
H	 4.4520357695	 2.1785684813	 0.30018762	 0.101588
H	 3.7338220536	 2.8042722345	-2.1103091443	 0.101588
H	 1.333749728	 1.5270735377	-2.1344537414	 0.136094
H	 1.1251104794	 3.2672362396	-1.9981176632	 0.112891
65.3093	128.1094	163.2106	280.5059	354.5291	403.9385	413.157	608.8668	684.3791	726.3754	750.5997	786.5163	801.4897	882.0442	926.9502	958.9143	958.9836	976.0249	981.6669	981.6733	1067.9863	1119.3415	1127.2428	1149.2717	1157.8134	1162.8566	1200.8916	1260.7163	1299.4183	1340.5762	1353.7328	1359.4288	1479.1346	1484.7091	1516.4832	1692.8495	1931.9145	3018.5615	3019.8031	3055.6096	3056.2141	3064.18	3126.153	3189.4976	3214.2952
O=C1OCC11CC=CC1	O=C1OC[C@]21CC=CC2	
InChI=1S/C7H8O2/c8-6-7(5-9-6)3-1-2-4-7/h1-2H,3-5H2	InChI=1S/C7H8O2/c8-6-7(5-9-6)3-1-2-4-7/h1-2H,3-5H2
