18
gdb 55067	3.63084	0.85156	0.77145	4.4519	75.33	-0.2426	-0.036	0.2066	1493.8721	0.143866	-439.076527	-439.066716	-439.065772	-439.112823	33.802	
C	 0.0770008433	 1.4741846328	 0.5715094158	-0.488001
C	 0.0772767393	 0.0887232137	-0.0420681114	 0.388854
O	 0.9974959661	-0.3179451291	-0.7202241699	-0.318473
C	-1.1395684786	-0.7476192143	 0.2472911383	-0.106573
C	-1.5621386395	-1.7538622295	-0.7868073995	-0.242155
N	-1.0548477414	-2.1967323315	 0.4905337797	-0.096845
C	 0.2351941534	-2.8755257484	 0.5432123383	-0.24279
C	 0.0092189154	-4.3801391597	 0.5334084893	 0.158192
O	 0.8725595475	-5.1827128876	 0.2960037982	-0.238986
H	 0.9713228921	 2.0168627535	 0.2650212889	 0.147335
H	-0.8185994829	 2.0268292441	 0.2646991498	 0.144518
H	 0.0431082941	 1.4019114982	 1.6649924195	 0.147228
H	-1.9055469691	-0.2583815487	 0.8442642562	 0.097844
H	-2.6218005912	-1.9132701464	-0.9669280741	 0.126517
H	-0.910177806	-1.8345812444	-1.6546987532	 0.141961
H	 0.938766803	-2.600239994	-0.2499706459	 0.159386
H	 0.7166621551	-2.6322332372	 1.5005383701	 0.135237
H	-1.0309077307	-4.6857223714	 0.7862123501	 0.086751
45.3501	63.9521	65.679	129.8625	145.4658	223.6469	250.8196	329.7213	382.4897	440.9397	503.118	594.4261	645.29	724.8923	768.3218	815.172	895.0137	959.2271	1000.8863	1030.4308	1050.9364	1058.2153	1088.8751	1124.0089	1127.7696	1162.3637	1193.8355	1258.1274	1327.1583	1336.279	1377.0944	1399.4784	1408.6409	1461.4637	1462.2662	1472.7875	1493.9318	1791.3084	1840.1186	2886.3054	3022.5724	3033.6247	3079.4719	3092.5135	3099.0496	3135.1315	3157.9711	3194.0421
CC(=O)C1CN1CC=O	CC(=O)[C@H]1CN1CC=O	
InChI=1S/C6H9NO2/c1-5(9)6-4-7(6)2-3-8/h3,6H,2,4H2,1H3	InChI=1S/C6H9NO2/c1-5(9)6-4-7(6)2-3-8/h3,6H,2,4H2,1H3/t6-,7?/m1/s1
