17
gdb 93980	4.41821	1.00548	0.84339	2.3069	72.51	-0.2313	-0.0608	0.1705	1303.675	0.136697	-455.166376	-455.15776	-455.156816	-455.199984	31.48	
O	-0.141271125	 1.3735349959	 0.1621871049	-0.426448
C	 0.1017735723	-0.0093303034	-0.0330410224	 0.087226
C	-1.2077251572	-0.729372687	 0.2979615396	-0.159896
N	-1.1000483816	-2.1120054805	-0.1226753413	-0.34848
C	-0.2416519781	-2.4914316872	-1.1047313781	 0.285828
C	-0.2389117626	-3.9569922545	-1.4067815987	 0.135756
O	-0.9425017247	-4.7502506994	-0.8280814502	-0.276469
N	 0.5562001521	-1.7534758568	-1.7917731159	-0.311706
C	 0.5264653798	-0.3292570954	-1.4760254671	-0.193826
H	 0.681616636	 1.8479795447	 0.0074401195	 0.289067
H	 0.8811502876	-0.3735231324	 0.6543066558	 0.082661
H	-1.4036521082	-0.6805502651	 1.3731440851	 0.122323
H	-2.0295948642	-0.2077355554	-0.2119919781	 0.122872
H	-1.6432532884	-2.8437403244	 0.3082534716	 0.261589
H	 0.4700099419	-4.2369157963	-2.2078979876	 0.110267
H	-0.1659561826	 0.1841632059	-2.1595026	 0.120556
H	 1.521005673	 0.0903669112	-1.6741145671	 0.098679
59.5881	123.5132	176.3832	200.1119	259.3114	316.0341	339.0045	403.1525	445.4134	457.6731	532.6967	579.8371	643.1485	756.7714	841.0655	896.6591	963.99	1027.4552	1042.0901	1060.7943	1108.4772	1131.8996	1163.3917	1204.2006	1238.5727	1275.4502	1288.7362	1318.5101	1348.6743	1373.7771	1384.4443	1442.9497	1484.335	1510.8304	1548.248	1704.1431	1805.198	2976.2238	2978.9817	3001.1875	3013.9161	3041.8784	3081.5524	3629.3399	3823.297
OC1CNC(C=O)=NC1	O[C@H]1CNC(=NC1)C=O	
InChI=1S/C5H8N2O2/c8-3-5-6-1-4(9)2-7-5/h3-4,9H,1-2H2,(H,6,7)	InChI=1S/C5H8N2O2/c8-3-5-6-1-4(9)2-7-5/h3-4,9H,1-2H2,(H,6,7)
