19
gdb 79832	2.25266	1.8188	1.39452	1.6101	74.52	-0.2266	0.0758	0.3024	1014.423	0.159712	-422.993333	-422.985411	-422.984467	-423.025373	31.303	
C	-0.0520358905	 1.5392042063	-0.0051513144	-0.522185
C	 0.0178040098	 0.043268125	 0.0088487316	 0.305137
C	 0.0119638731	-0.9069586909	-1.1330502874	 0.053248
O	 1.1098651606	-1.7971571394	-1.1415546818	-0.27443
C	 1.8273749767	-1.566948717	 0.0791148453	-0.09315
C	 0.8120276761	-0.8803450385	 0.9884318292	-0.169557
C	-0.4728348949	-1.7632267293	 1.1405339229	 0.141727
O	-1.2450497901	-1.440909051	 2.2813005506	-0.446196
C	-1.0615009069	-1.0541835785	-0.0663222959	-0.161398
H	 0.935571602	 1.9836779859	-0.1780193821	 0.119913
H	-0.7162247911	 1.8928031936	-0.800750672	 0.121759
H	-0.4347764166	 1.9288096399	 0.9445729947	 0.127543
H	-0.2972774077	-0.6001233364	-2.125591517	 0.102291
H	 2.1705467091	-2.5350069404	 0.46091202	 0.103077
H	 2.7059842276	-0.9306059015	-0.107713509	 0.093086
H	 1.2052103748	-0.4557558495	 1.9124401659	 0.07032
H	-0.3196805544	-2.850649158	 1.061397913	 0.063227
H	-0.8120469785	-1.8281117252	 3.0491415983	 0.279393
H	-2.1208528892	-0.9698324653	-0.2838822821	 0.086195
127.4529	193.5569	233.1271	242.0803	291.4132	314.1203	339.2824	415.0793	555.5444	588.6503	672.5798	743.8348	776.4988	852.4722	874.3838	897.849	927.5921	965.4137	981.322	1014.544	1024.4942	1032.5327	1058.3168	1096.5776	1117.2003	1129.9272	1171.2636	1199.3475	1214.3846	1217.5416	1247.1923	1274.1235	1301.0792	1327.833	1369.8869	1413.4408	1429.6888	1465.4607	1486.0222	1498.439	1514.5215	2976.694	2985.4472	3021.6268	3062.6493	3082.5492	3095.2164	3116.2543	3170.9825	3187.4242	3810.5523
CC12C3OCC1C(O)C23	C[C@@]12[C@H]3OC[C@@H]1[C@@H](O)[C@@H]23	
InChI=1S/C7H10O2/c1-7-3-2-9-6(7)4(7)5(3)8/h3-6,8H,2H2,1H3	InChI=1S/C7H10O2/c1-7-3-2-9-6(7)4(7)5(3)8/h3-6,8H,2H2,1H3/t3-,4-,5-,6+,7-/m1/s1
