21
gdb 113902	3.68923	0.77766	0.69393	2.2586	80.3	-0.238	-0.0048	0.2333	1683.5025	0.178923	-424.222234	-424.211653	-424.210709	-424.259624	36.913	
C	-0.6067293272	 1.0557186455	 0.1322229387	-0.230301
O	 0.468992987	 0.1715064271	-0.1089812158	-0.238419
C	 0.9421978398	-0.4380610782	 1.0519304897	 0.094227
C	 0.2359086007	-1.6645781539	 1.5801190797	-0.31622
C	 1.5857107636	-1.7816880766	 0.8981934231	-0.02148
C	 1.6950132135	-2.421348712	-0.4643641374	-0.323318
C	 1.9115375305	-3.9302497381	-0.4114451857	 0.381021
C	 1.8528010615	-4.6563852968	-1.7451838931	-0.473205
O	 2.1276593624	-4.5152745752	 0.6248230266	-0.291831
H	-0.3120242715	 1.8769840394	 0.8030265168	 0.106855
H	-0.9017164405	 1.4762497394	-0.8321244968	 0.12541
H	-1.4663963468	 0.5367593792	 0.5798227422	 0.109575
H	 1.3688100417	 0.2589665605	 1.7755640543	 0.084142
H	 0.171430888	-1.8241610541	 2.650488298	 0.114677
H	-0.6281679024	-2.0041576971	 1.0175507821	 0.112414
H	 2.4278144708	-1.9856163111	 1.5509087447	 0.101499
H	 0.8137642438	-2.1975511619	-1.0753639208	 0.125565
H	 2.5389804357	-1.9951062734	-1.0279642269	 0.124723
H	 2.5003427878	-4.1720493112	-2.4840795062	 0.134307
H	 2.148472466	-5.6980900055	-1.6150759717	 0.140718
H	 0.8323978155	-4.6163946461	-2.1443531116	 0.13964
27.5018	55.007	99.3943	113.4469	117.6551	192.5208	198.8787	281.2127	310.6126	408.4879	460.9973	478.1302	555.9308	606.7865	775.3573	805.0459	836.2165	843.8825	887.1125	957.7668	966.6947	1017.3257	1052.3982	1058.4576	1100.2474	1128.2373	1148.1874	1166.7388	1182.641	1185.1129	1223.8367	1246.8449	1259.9755	1330.002	1380.9459	1386.579	1419.9022	1452.1193	1465.6927	1474.6995	1477.9787	1485.6227	1493.4515	1509.8517	1812.7076	2983.3867	3006.7036	3034.6713	3035.6784	3073.8794	3081.4572	3096.5632	3116.6985	3131.2571	3151.1697	3168.3645	3219.9856
COC1CC1CC(C)=O	CO[C@H]1C[C@H]1CC(=O)C	
InChI=1S/C7H12O2/c1-5(8)3-6-4-7(6)9-2/h6-7H,3-4H2,1-2H3	InChI=1S/C7H12O2/c1-5(8)3-6-4-7(6)9-2/h6-7H,3-4H2,1-2H3/t6-,7+/m1/s1
