15
gdb 77847	2.21537	1.56124	1.4574	3.2695	70.31	-0.2638	-0.051	0.2129	993.0223	0.111685	-416.783412	-416.77532	-416.774376	-416.816199	29.57	
C	-0.4791100352	 1.5177130034	 0.0974444052	-0.437118
C	 0.0058915224	 0.0840248347	 0.0042474236	-0.062214
N	 0.5578856514	-0.4579819778	-1.3054461237	-0.144839
C	 1.9142600762	 0.066600158	-1.5332787299	-0.153439
C	 2.4090376514	 1.3648064558	-1.1350185911	 0.30927
N	 2.8505396384	 2.4007707778	-0.8714325672	-0.332292
C	 1.7364475337	-1.0621457053	-0.5662887988	-0.169347
C	 1.2229515443	-0.513043628	 0.7513893834	 0.389251
O	 1.5267292695	-0.6629641372	 1.8943553011	-0.284498
H	 0.3034888546	 2.2498423905	-0.0973563185	 0.16598
H	-1.297888068	 1.6791114811	-0.6103661905	 0.138713
H	-0.8652556262	 1.6932563055	 1.1061495435	 0.145216
H	-0.8243095749	-0.5923289	 0.248469237	 0.136809
H	 2.2847855987	-0.226383283	-2.512700418	 0.159323
H	 2.1354603038	-2.0498114755	-0.7677538261	 0.139185
87.7791	155.8338	165.7741	188.7586	252.5315	277.77	427.8469	454.9381	534.4995	612.6149	655.157	680.9317	736.0751	786.2249	829.0033	903.1233	926.1102	1023.7614	1048.2797	1067.7932	1079.6618	1107.232	1167.8761	1222.3235	1242.5829	1292.7815	1352.4038	1383.4464	1410.1404	1491.7693	1499.7004	1909.0407	2350.9716	3030.4366	3053.0084	3115.6182	3146.9972	3163.9117	3189.5194
CC1N2C(C#N)C2C1=O	C[C@H]1N2[C@@H](C#N)[C@H]2C1=O	
InChI=1S/C6H6N2O/c1-3-6(9)5-4(2-7)8(3)5/h3-5H,1H3	InChI=1S/C6H6N2O/c1-3-6(9)5-4(2-7)8(3)5/h3-5H,1H3/t3-,4+,5+,8?/m1/s1
