16
gdb 49687	2.09257	1.77427	1.07945	2.7381	78.17	-0.2478	-0.0157	0.2321	1105.5944	0.124889	-396.894887	-396.886883	-396.885939	-396.927664	29.71	
N	-0.2449020147	 0.9864333937	 0.5328198292	-0.413066
C	-0.1297554755	-0.1745244075	 0.0344524998	 0.046086
N	-1.1796892516	-0.7834138377	-0.6644943584	-0.106883
C	-2.539126475	-0.5958652418	-0.1997453159	-0.072536
C	-3.4725429977	-1.1256482286	-1.2941034022	-0.238407
C	-2.7739524293	-2.5267927657	-1.1905898462	-0.291409
C	-1.8691676863	-1.9554200656	-0.0849181334	 0.212963
C	-1.3626900209	-2.6333334117	 1.0619866987	 0.199917
N	-0.953559356	-3.2128091349	 1.9770655457	-0.344348
H	 0.6468625751	 1.2991672839	 0.9146943809	 0.235263
H	 0.7784461241	-0.7859665036	 0.0241992674	 0.117551
H	-2.7330841338	 0.1270502601	 0.581433115	 0.145506
H	-4.5156229075	-1.1609802896	-0.9762474266	 0.122989
H	-3.395858376	-0.6071868262	-2.2512603538	 0.127216
H	-3.4431706781	-3.3038775099	-0.819460086	 0.133172
H	-2.2401761767	-2.8842820248	-2.0724202542	 0.125986
90.0687	148.9131	159.8818	210.9346	257.9395	302.4591	413.32	520.6144	552.3258	584.5518	666.4177	726.1573	766.5866	806.9696	859.0983	920.2277	938.8014	965.6191	1025.355	1062.2115	1066.3015	1076.7611	1140.3971	1177.6264	1218.6589	1236.6836	1270.4051	1275.155	1316.4322	1399.9869	1410.0837	1468.2514	1489.143	1702.4176	2343.3111	3073.9936	3081.5297	3087.5256	3135.8026	3152.2313	3223.149	3495.8163
N=CN1C2CCC12C#N	[NH][CH]N1[C@H]2CC[C@@]12C#N	
InChI=1S/C6H7N3/c7-3-6-2-1-5(6)9(6)4-8/h4-5,8H,1-2H2	InChI=1S/C6H7N3/c7-3-6-2-1-5(6)9(6)4-8/h4-5,8H,1-2H2/t5-,6-,9?/m0/s1
