18
gdb 87654	2.60582	1.34446	1.14651	4.4246	73.25	-0.2297	-0.0293	0.2004	1135.9083	0.145558	-439.049167	-439.040385	-439.039441	-439.082605	33.117	
C	-0.2593529832	 1.2371812796	-0.0667637079	-0.322728
N	 0.0429677192	-0.1743213608	 0.1361899704	-0.129659
C	 1.4400553151	-0.5878247464	-0.0613176921	-0.325085
C	 0.8458517671	-0.5677596809	 1.2897637157	 0.278017
C	 1.0990170475	 0.286690253	 2.5389207287	-0.444327
C	 0.1740649077	-0.7117360299	 3.290474319	 0.351679
O	-0.4538200882	-0.6459410138	 4.302955703	-0.280344
C	 0.2773418335	-1.7406324455	 2.1199895571	 0.001136
O	-0.8399235167	-2.3946403827	 1.6198376743	-0.425941
H	 0.5675723149	 1.9091713608	 0.2100940278	 0.109649
H	-0.4912087705	 1.3986348401	-1.1235455523	 0.134535
H	-1.1408314491	 1.5120859939	 0.5208105755	 0.133697
H	 1.5869615596	-1.5303173371	-0.5829103604	 0.128014
H	 2.1587786487	 0.1917673653	-0.311016481	 0.116835
H	 2.1334218152	 0.2591091368	 2.8961726621	 0.138672
H	 0.7579186853	 1.3245041579	 2.5304105524	 0.13789
H	 1.055400713	-2.4773964354	 2.3706784865	 0.107506
H	-1.1821096092	-1.810183655	 0.9239731513	 0.290454
65.8073	142.7499	197.1413	214.5814	224.1447	260.0035	390.3035	427.3604	440.9169	472.7454	528.2282	566.1146	592.7782	724.0857	756.3065	791.8485	854.8968	896.9789	982.4642	1031.9945	1049.4891	1076.002	1115.2178	1134.6521	1160.6095	1165.9903	1181.379	1204.1156	1231.1235	1234.086	1336.3844	1405.028	1426.1525	1447.45	1454.99	1493.6867	1498.3043	1511.438	1904.1004	2984.7915	3001.1683	3059.6381	3076.628	3090.3351	3110.5348	3117.6988	3178.1174	3681.9407
CN1CC11CC(=O)C1O	CN1C[C@]21CC(=O)[C@H]2O	
InChI=1S/C6H9NO2/c1-7-3-6(7)2-4(8)5(6)9/h5,9H,2-3H2,1H3	InChI=1S/C6H9NO2/c1-7-3-6(7)2-4(8)5(6)9/h5,9H,2-3H2,1H3/t5-,6-,7?/m1/s1
