22
gdb 60841	1.94409	1.48642	1.20582	3.1343	82.87	-0.2218	-0.0265	0.1953	1204.5907	0.1906	-404.330943	-404.320406	-404.319461	-404.366156	38.457	
C	 1.0980451125	-2.594115587	 1.0489291602	-0.419972
C	 0.2171322383	-1.7537483803	 0.1023675544	-0.159129
C	-0.4402234273	-0.6228939106	 0.8779020936	 0.164546
O	-0.5512208805	 0.517674004	 0.5077973461	-0.246681
C	 0.9491287787	-1.2911278611	-1.1580441263	 0.369715
C	 2.1675085101	-0.4123829442	-0.9325470155	-0.46707
C	 0.9335610127	-2.2241676584	-2.3316762067	-0.306111
N	 0.2104189529	-0.9623295466	-2.3787034517	-0.108027
C	-1.241593642	-0.9824863814	-2.4336913854	-0.324413
H	 1.4955933441	-3.4656785223	 0.522650007	 0.13141
H	 1.9428405707	-2.0171594916	 1.4350392247	 0.134557
H	 0.5181419284	-2.9515715836	 1.9060424837	 0.120429
H	-0.6241612543	-2.3998221971	-0.1886149212	 0.101451
H	-0.8538798069	-0.9416884033	 1.8646522791	 0.076674
H	 2.9520167338	-0.9404290337	-0.3802321999	 0.108283
H	 2.5751149957	-0.1054928959	-1.8981021384	 0.126735
H	 1.8966551626	 0.4900751222	-0.3779903885	 0.138637
H	 1.7987764405	-2.3105746506	-2.985723225	 0.109365
H	 0.3531614139	-3.1429661573	-2.2320251062	 0.094761
H	-1.7129541134	-1.8571941647	-1.9560073687	 0.089858
H	-1.6289455112	-0.0765120743	-1.9603546307	 0.14289
H	-1.5480735596	-0.9826239021	-3.4848199248	 0.122093
75.0822	88.3254	150.2945	179.5479	205.3551	207.638	234.2637	243.8684	290.2536	313.7948	406.1409	423.3494	444.0389	513.9581	638.6144	694.264	761.6739	863.4491	912.7376	917.0604	927.9852	977.931	1028.8308	1044.5824	1088.1033	1118.0799	1128.4524	1137.7866	1163.303	1178.4972	1203.9537	1280.9184	1291.5802	1313.1397	1394.6894	1404.1802	1412.5334	1433.9293	1448.2864	1483.0065	1493.6887	1496.3852	1502.8555	1504.6059	1509.2689	1515.7334	1828.0027	2846.8132	2963.9893	3006.0099	3040.9463	3044.0604	3066.7986	3069.4113	3108.7073	3113.2019	3118.0657	3124.3453	3131.7907	3155.6585
CC(C=O)C1(C)CN1C	C[C@@H](C=O)[C@@]1(C)CN1C	
InChI=1S/C7H13NO/c1-6(4-9)7(2)5-8(7)3/h4,6H,5H2,1-3H3	InChI=1S/C7H13NO/c1-6(4-9)7(2)5-8(7)3/h4,6H,5H2,1-3H3/t6-,7+,8?/m0/s1
