21
gdb 85629	3.24835	1.0461	0.86644	0.8211	95.1	-0.2235	-0.0148	0.2087	1398.9726	0.181608	-349.950003	-349.940571	-349.939627	-349.983817	36.337	
C	-0.8313526613	 1.2212411527	 0.0141019348	-0.414686
C	 0.100992823	 0.0134123345	-0.0591011483	 0.024097
C	 1.2751839262	 0.1680259195	-1.0562143372	-0.328155
C	 2.3376466257	-0.7563891217	-0.4803097255	 0.196028
C	 2.040172424	-1.0946496242	 0.784170407	-0.17557
C	 0.7753239401	-0.4345890882	 1.2784986356	-0.036142
C	 1.0984612485	 0.6987096372	 2.2717113533	-0.389183
C	 3.4835259812	-1.1450386983	-1.2145982855	 0.184958
C	 4.4396506535	-1.4517805564	-1.8817152429	-0.407414
H	-0.3003914973	 2.1267666342	 0.3250062412	 0.117629
H	-1.2788084778	 1.4223860342	-0.9650937582	 0.113731
H	-1.6506836099	 1.0534489395	 0.7215664994	 0.112701
H	-0.4859017447	-0.848103115	-0.4010865284	 0.079608
H	 0.9956121443	-0.1000093171	-2.0800748223	 0.110357
H	 1.6506492191	 1.2002416151	-1.0956935152	 0.108612
H	 2.6656169933	-1.7166534686	 1.4149333662	 0.095256
H	 0.1307242785	-1.1542934188	 1.7996998241	 0.071771
H	 1.7207187208	 1.4714220951	 1.8086529516	 0.119084
H	 0.186305539	 1.1724882366	 2.6473935772	 0.11551
H	 1.6487205904	 0.3061055237	 3.1329817815	 0.113843
H	 5.2884645333	-1.730498854	-2.4550896287	 0.187966
97.1312	110.3717	142.1113	236.5178	245.7708	271.5582	282.0322	330.612	441.6209	471.9715	521.1222	541.5115	555.294	592.4432	631.1819	661.7895	750.1037	868.5664	886.879	900.7553	930.5907	952.5438	997.9388	1026.4841	1079.8261	1087.3302	1123.733	1148.044	1184.9132	1214.6501	1273.0053	1301.1205	1311.2406	1340.6567	1359.4539	1373.0576	1402.4127	1413.4203	1488.8764	1490.4372	1494.1653	1503.7311	1506.2406	1668.6815	2219.8573	3006.306	3013.3333	3027.0686	3029.1123	3033.5113	3072.8371	3093.8486	3098.5967	3103.2657	3107.0786	3195.7124	3504.4482
CC1CC(=CC1C)C#C	C[C@H]1CC(=C[C@H]1C)C#C	
InChI=1S/C9H12/c1-4-9-5-7(2)8(3)6-9/h1,5,7-8H,6H2,2-3H3	InChI=1S/C9H12/c1-4-9-5-7(2)8(3)6-9/h1,5,7-8H,6H2,2-3H3/t7-,8+/m1/s1
