19
gdb 30867	2.62942	1.28567	0.91809	3.3787	80.57	-0.1979	0.041	0.2389	1315.3505	0.158135	-419.24877	-419.238787	-419.237843	-419.284254	34.889	
C	 0.3195118061	 1.0065096162	-0.3915668949	-0.248709
O	-0.2474126139	 0.2624581166	 0.689050307	-0.27155
C	-1.2992958776	-0.5218038725	 0.3515440657	 0.276825
C	-1.3906205503	-1.8302655947	-0.0391833283	 0.17561
C	-0.2850439382	-2.8094838968	-0.2566478208	-0.496636
N	-2.7235468318	-2.1623545834	-0.2076758188	-0.346712
C	-3.4226555444	-1.0857535531	 0.0751048058	 0.332802
C	-4.9102220649	-0.9760393049	 0.0428071769	-0.497626
N	-2.6006438938	-0.0461145735	 0.4160250811	-0.34575
H	 1.1634923645	 1.5626789253	 0.0215478214	 0.132727
H	 0.671317048	 0.3388475048	-1.1863584166	 0.127873
H	-0.4071112964	 1.7116210895	-0.8154428754	 0.112972
H	-0.4392862334	-3.7124919133	 0.3436293906	 0.131914
H	-0.2262966405	-3.1263917478	-1.3042492876	 0.125469
H	 0.6767556076	-2.3720033507	 0.0252055083	 0.119219
H	-5.3244481772	-0.7138305127	 1.0237085085	 0.128029
H	-5.2521255538	-0.2184526384	-0.6724141111	 0.127025
H	-5.3201583628	-1.9416598423	-0.2561900465	 0.156056
H	-2.8693423074	 0.8696187218	 0.7354138948	 0.260461
52.1523	93.8061	128.7154	139.5751	149.7027	213.4977	243.2845	275.4608	288.5923	445.386	485.7956	503.6511	606.3271	638.6887	698.8924	723.0059	797.0569	977.1578	1003.0881	1027.9286	1050.3448	1061.2204	1066.4023	1172.0793	1175.2379	1195.8273	1233.7494	1288.5149	1394.2149	1411.0308	1421.9639	1436.6038	1478.1571	1480.9206	1482.4617	1487.3012	1494.8953	1500.649	1503.4128	1573.9335	1663.0319	3009.9631	3025.538	3029.7349	3072.9861	3076.6981	3082.4871	3114.4478	3130.9417	3146.3442	3660.1746
COC1=C(C)N=C(C)N1	COc1c(C)nc(C)[nH]1	
InChI=1S/C6H10N2O/c1-4-6(9-3)8-5(2)7-4/h1-3H3,(H,7,8)	InChI=1S/C6H10N2O/c1-4-6(9-3)8-5(2)7-4/h1-3H3,(H,7,8)
