22
gdb 113967	4.10521	0.66228	0.62136	2.6622	88.41	-0.2446	0.0256	0.2702	1918.0552	0.191794	-404.332165	-404.32164	-404.320696	-404.368848	37.309	
C	 0.1266780121	 1.3222471686	-0.574566489	-0.374411
C	-0.1349598295	 0.1516006008	 0.379065219	-0.190995
C	-1.4545311908	-0.540040085	 0.1000823957	-0.020462
C	-1.5536978495	-1.6046321849	-0.9772414474	-0.322944
C	-1.6821519913	-1.9706165838	 0.4800445797	 0.084492
O	-0.6150648593	-2.6305396271	 1.11837394	-0.207281
C	-0.5210492362	-3.9592626235	 0.8807827496	 0.132227
N	 0.3700403719	-4.6454117088	 1.4415999675	-0.205433
C	 0.4099653586	-6.0597759285	 1.1355360485	-0.314103
H	 1.0803858131	 1.8086473664	-0.3480429157	 0.113891
H	 0.1595578016	 0.9835956418	-1.6154916247	 0.116374
H	-0.6603365162	 2.0809259335	-0.4988250166	 0.112007
H	 0.6771479857	-0.578688954	 0.3120447426	 0.116091
H	-0.1323342243	 0.5113439278	 1.415619369	 0.103696
H	-2.3272000004	 0.0999417235	 0.2089233557	 0.088355
H	-2.4342745829	-1.6543615649	-1.6082029749	 0.115254
H	-0.6270069921	-1.8898609265	-1.4649183996	 0.124793
H	-2.6579051422	-2.2581962276	 0.8654889044	 0.101499
H	-1.2728263366	-4.3459208876	 0.1761727091	 0.077708
H	 1.3883847529	-6.3179467751	 0.7142341333	 0.127023
H	 0.3003015288	-6.6392342888	 2.0594317398	 0.127517
H	-0.3683267934	-6.3890344962	 0.4271853138	 0.094702
41.4719	75.1004	92.89	106.32	184.46	209.9785	222.3467	268.8547	301.5545	342.0009	400.883	470.5007	533.5857	639.0124	754.5075	790.9324	834.3856	871.2975	962.2258	982.8173	985.4495	1021.2101	1041.3228	1061.6795	1078.0234	1111.6729	1136.1614	1142.1966	1148.7453	1182.6156	1199.3267	1221.3998	1260.7165	1292.1847	1342.8327	1376.7455	1407.8901	1412.0174	1422.5825	1450.6431	1480.3693	1481.4385	1491.0303	1498.7603	1505.2391	1508.7615	1779.3397	2965.0332	3004.6312	3030.9987	3033.4403	3056.968	3076.2517	3078.0256	3101.7578	3105.9625	3121.6952	3130.5871	3137.1359	3219.7261
CCC1CC1OC=NC	CC[C@H]1C[C@H]1OC=NC	
InChI=1S/C7H13NO/c1-3-6-4-7(6)9-5-8-2/h5-7H,3-4H2,1-2H3	InChI=1S/C7H13NO/c1-3-6-4-7(6)9-5-8-2/h5-7H,3-4H2,1-2H3/t6-,7+/m0/s1
