21
gdb 60406	3.22476	1.03924	0.87517	1.7105	75.8	-0.2317	0.0679	0.2996	1386.989	0.180663	-461.32947	-461.319773	-461.318828	-461.363987	36.778	
C	 0.1178454635	 1.0549351641	 0.4868416853	-0.380708
C	-0.2794466947	-0.3938740108	 0.2158348727	 0.098724
O	-0.3898233522	-1.045429545	 1.4677469105	-0.443659
C	-1.5885527582	-0.4488905938	-0.5826234733	-0.07037
O	-1.9656518501	-1.7626594054	-1.0054827305	-0.278966
C	-2.7833942567	-2.4716763732	-0.1170798462	 0.091906
C	-3.0410952423	-3.9068122974	-0.5046658335	-0.365175
C	-2.1171780549	-3.5851012416	 0.6461260055	 0.093994
O	-0.7269554435	-3.7267385436	 0.4943716602	-0.429779
H	 1.0570263106	 1.0811931726	 1.044245986	 0.127526
H	 0.2453767716	 1.6171839577	-0.443120015	 0.11006
H	-0.647195309	 1.5507596218	 1.0934546546	 0.123218
H	 0.5036983363	-0.8690875878	-0.3996368777	 0.060996
H	-0.3398259036	-2.0016634801	 1.3169308993	 0.301378
H	-2.3948255933	-0.0030290839	 0.0159692819	 0.099939
H	-1.4781874906	 0.1332993915	-1.5044965813	 0.102696
H	-3.5778824853	-1.884413063	 0.3390281275	 0.098422
H	-4.0150113996	-4.3358531862	-0.2965864703	 0.122476
H	-2.5816379568	-4.2465019154	-1.4277436996	 0.126928
H	-2.4154930124	-3.8166503315	 1.6619627053	 0.116429
H	-0.5150147489	-3.3530836589	-0.3731773313	 0.293966
79.0477	86.6839	151.0625	184.1144	216.6794	266.5199	268.4113	341.6212	396.4389	453.4041	463.9689	508.3729	558.6382	633.5705	656.2092	767.4768	780.9487	838.5053	858.7161	927.8586	945.3666	985.8628	1037.5068	1063.2964	1078.3761	1087.8909	1106.2498	1121.8522	1130.6899	1166.7987	1179.5916	1221.544	1302.0969	1315.0833	1317.7611	1360.7554	1371.7802	1398.4463	1415.0229	1434.4674	1466.206	1476.0702	1483.656	1487.0202	1502.4769	2953.8034	3010.7393	3041.831	3073.1354	3112.1334	3121.9149	3127.4783	3131.0863	3183.8379	3222.0389	3683.9973	3745.5949
CC(O)COC1CC1O	C[C@@H](O)CO[C@H]1C[C@H]1O	
InChI=1S/C6H12O3/c1-4(7)3-9-6-2-5(6)8/h4-8H,2-3H2,1H3	InChI=1S/C6H12O3/c1-4(7)3-9-6-2-5(6)8/h4-8H,2-3H2,1H3/t4-,5-,6+/m1/s1
