14
gdb 7029	5.6282	0.91485	0.83597	1.8656	64.3	-0.26	-0.0411	0.2188	1301.5815	0.105948	-415.902127	-415.893755	-415.892811	-415.936445	28.174	
N	 0.9248524665	 0.4008843379	-0.7101959009	-0.455961
C	-0.1026597495	 0.5235792581	 0.0236426825	 0.100446
N	-1.2908913119	-0.0968000544	-0.3434068191	-0.30893
C	-2.4512080948	-0.0237166671	 0.3975944899	 0.413985
O	-2.536743576	 0.6046037517	 1.4329273516	-0.352315
C	-3.6393035385	-0.7768643074	-0.1835087444	-0.400877
C	-4.8673119974	 0.1253826542	-0.2626964299	 0.167189
O	-5.645803556	 0.1033119958	-1.1770763554	-0.230184
H	 1.7103049389	 0.9105863249	-0.3098878936	 0.238084
H	-0.199472676	 1.0777587054	 0.9587296577	 0.145626
H	-1.2659449352	-0.6268303873	-1.2030007099	 0.268139
H	-3.4570180651	-1.2293848531	-1.1606167305	 0.129121
H	-3.8818675501	-1.576250573	 0.5297910332	 0.168255
H	-4.984985365	 0.8012926144	 0.6079299888	 0.117421
32.5349	97.1726	124.0774	167.1009	198.3417	258.719	377.7294	457.0568	518.8368	589.4956	652.9225	742.077	807.0853	835.8105	982.5809	1015.2583	1050.0103	1089.9164	1094.738	1148.8582	1220.5853	1288.541	1314.8119	1391.4309	1404.3765	1441.6327	1498.6596	1729.8465	1787.5626	1841.4219	2942.4324	3034.3519	3116.7217	3128.583	3510.1347	3614.5713
N=CNC(=O)CC=O	N=CNC(=O)CC=O	
InChI=1S/C4H6N2O2/c5-3-6-4(8)1-2-7/h2-3H,1H2,(H2,5,6,8)	InChI=1S/C4H6N2O2/c5-3-6-4(8)1-2-7/h2-3H,1H2,(H2,5,6,8)
