12
gdb 25455	2.29644	1.7667	0.99852	3.0875	70.63	-0.2732	-0.09	0.1831	1062.064	0.079145	-431.728596	-431.721436	-431.720492	-431.760667	25.466	
O	-0.0924489626	-0.0179174137	 0.0004154229	-0.260162
C	-0.0482276895	 1.1786799754	 0.0088908366	 0.174592
N	 1.16585764	 1.8950594624	 0.0001750231	-0.119332
C	 2.436603711	 1.354616466	-0.0186165902	-0.085278
C	 3.2926782025	 2.4195428035	-0.0205741143	-0.091816
N	 2.6010578832	 3.6103692045	-0.0036459732	-0.292175
C	 1.3337658072	 3.2764079168	 0.0086023953	 0.285381
C	 0.2316074119	 4.1704753025	 0.0280929155	 0.250132
N	-0.6929773825	 4.8669165105	 0.0440342385	-0.333709
H	-0.9228971485	 1.847150202	 0.0240422963	 0.150559
H	 2.5773836052	 0.2875875481	-0.0282468382	 0.179535
H	 4.3712852219	 2.404981812	-0.0332081222	 0.142273
135.7018	140.714	160.2932	248.4061	271.0565	463.3193	502.4576	577.2986	631.6145	633.2468	725.2633	805.3284	831.4898	897.9558	931.9235	1037.552	1087.2051	1140.3596	1185.9761	1290.8953	1357.4509	1414.0738	1445.5862	1482.1419	1557.691	1836.9467	2349.46	3033.4944	3264.0183	3301.7388
O=CN1C=CN=C1C#N	O=Cn1ccnc1C#N	
InChI=1S/C5H3N3O/c6-3-5-7-1-2-8(5)4-9/h1-2,4H	InChI=1S/C5H3N3O/c6-3-5-7-1-2-8(5)4-9/h1-2,4H
