16
gdb 25281	3.16051	1.68129	1.11263	4.18	80.11	-0.2251	-0.0335	0.1917	1033.8773	0.127763	-400.822538	-400.815614	-400.814669	-400.854292	26.667	
O	-0.0664835754	-0.0459477177	 0.0032545531	-0.335196
C	-0.0087400583	 1.1629849815	 0.0089584802	 0.277969
C	-1.2387824615	 2.1093979888	 0.0323662966	-0.33188
C	-0.6821280691	 3.5503710922	 0.0316258551	-0.199645
N	 0.7657889413	 3.3451513241	 0.0095276932	-0.00722
C	 1.8499871619	 4.1525293091	-0.0018967769	-0.118859
C	 2.9801759522	 3.3359558997	-0.0228120087	-0.13552
C	 2.5474637931	 1.9944066384	-0.0238844549	-0.297295
C	 1.1592928492	 2.0261325568	-0.0034148389	 0.246688
H	-1.8654922988	 1.9027407706	-0.8389055877	 0.141425
H	-1.8390394369	 1.8934779403	 0.9198771321	 0.141441
H	-0.9969888682	 4.1234908546	-0.8457762991	 0.131535
H	-0.9712589941	 4.1145104644	 0.923576971	 0.131527
H	 1.7595185269	 5.227676212	 0.0052896864	 0.127209
H	 4.0012526883	 3.686625199	-0.0357563212	 0.106257
H	 3.1594068893	 1.1064966862	-0.0376750103	 0.121563
75.6118	163.9802	194.6486	306.0926	521.7383	540.5921	607.063	616.5971	650.5345	669.0502	739.2609	753.195	799.5659	843.4437	872.0743	916.2421	995.2254	1021.7955	1041.1485	1048.1502	1086.0491	1152.8721	1196.5051	1243.5229	1255.0587	1270.5221	1321.6082	1342.8889	1408.3486	1458.6917	1465.2122	1499.0227	1532.3255	1569.1856	1809.1076	3048.183	3074.7323	3083.1514	3118.9376	3241.2994	3259.9269	3268.3715
O=C1CCN2C=CC=C12	O=C1CCn2cccc12	
InChI=1S/C7H7NO/c9-7-3-5-8-4-1-2-6(7)8/h1-2,4H,3,5H2	InChI=1S/C7H7NO/c9-7-3-5-8-4-1-2-6(7)8/h1-2,4H,3,5H2
