17
gdb 18763	4.01692	2.23288	1.74226	2.2961	67.46	-0.2178	0.0654	0.2833	781.5962	0.143791	-363.785461	-363.779143	-363.778198	-363.815746	25.2	
C	-0.0276419251	 1.3064689422	-0.3816035934	-0.170217
C	 1.4120460316	 1.5720537789	 0.1428499203	-0.360291
C	 1.2823605861	 0.2335024185	 0.8602197081	 0.333201
C	 2.236121853	-0.9042089781	 1.1981619978	-0.151672
O	 1.4204212723	-1.2729068849	 2.3427180206	-0.294252
C	 0.5739952267	-0.1117485232	 2.1942881653	 0.049268
C	-0.7076040571	-0.3767060001	 1.3718904355	-0.20208
N	 0.030462769	-0.1198674088	 0.0879220258	-0.14657
H	-0.7976112311	 1.9011789097	 0.1252255959	 0.098723
H	-0.1762757987	 1.3939461401	-1.4611755648	 0.109977
H	 2.1660038583	 1.551924966	-0.6487669577	 0.1175
H	 1.5759005337	 2.4572830238	 0.7609047278	 0.111266
H	 2.3077086136	-1.7051009901	 0.454025631	 0.113093
H	 3.2415348994	-0.5913473803	 1.5116772537	 0.099987
H	 0.528685778	 0.4898937372	 3.1067640912	 0.077355
H	-1.0937411905	-1.3968227565	 1.4500770466	 0.11593
H	-1.5228403693	 0.3342054155	 1.5540748663	 0.098783
124.9184	219.6796	320.6717	349.572	444.6404	493.1447	688.3655	711.8931	767.7017	804.5488	839.026	875.7349	902.7702	946.6602	950.0814	986.4403	1010.411	1035.5161	1094.6183	1108.6756	1144.0957	1154.7748	1168.0226	1197.7695	1206.1507	1221.3379	1252.1738	1276.6207	1297.7928	1304.6978	1317.0299	1382.3586	1475.0916	1479.5333	1503.1589	1513.9961	3005.5922	3021.0535	3026.7289	3062.3341	3064.7973	3071.4698	3083.4231	3094.4728	3117.4932
C1CC23COC2CN13	C1C[C@@]23CO[C@@H]2CN13	
InChI=1S/C6H9NO/c1-2-7-3-5-6(1,7)4-8-5/h5H,1-4H2	InChI=1S/C6H9NO/c1-2-7-3-5-6(1,7)4-8-5/h5H,1-4H2/t5-,6-/m1/s1
