19
gdb 104420	2.55371	1.36849	1.18587	2.6077	66.96	-0.2383	0.057	0.2954	1115.243	0.157905	-497.285563	-497.276003	-497.275059	-497.319843	35.18	
O	-0.3193988592	 1.5303385219	 0.280049808	-0.442879
C	-0.0041133177	 0.1368041528	 0.2412251975	-0.156657
C	-1.3169682277	-0.5638861109	-0.085478552	 0.374015
O	-2.2938665155	-0.2224843144	 0.889927196	-0.497903
C	-1.8407436087	-0.2893531275	-1.5103974913	-0.079271
O	-2.6536643799	-1.4066121583	-1.8659934168	-0.269713
C	-2.5072377242	-2.4340398142	-0.8937681688	-0.095889
C	-1.2492156708	-2.0986555441	-0.0909064018	 0.060089
O	-0.0500194996	-2.4672017501	-0.7596763005	-0.448163
H	 0.4364531359	 2.0074915697	 0.6327215985	 0.296141
H	 0.7556021905	-0.0872161919	-0.5149843265	 0.115307
H	 0.3570660814	-0.2128253301	 1.2185304048	 0.097418
H	-2.2129898222	 0.7322863958	 1.0102125858	 0.288575
H	-2.4419661781	 0.6244634283	-1.5411032919	 0.102973
H	-1.0121475258	-0.1946864832	-2.2244021632	 0.095501
H	-3.3809876336	-2.4642578598	-0.2283274561	 0.1093
H	-2.4253167306	-3.4026522695	-1.404657714	 0.085236
H	-1.2841868601	-2.4964885481	 0.9311164339	 0.077875
H	-0.1047459539	-3.4009252965	-0.9837906216	 0.288044
80.5192	107.1741	136.8784	181.029	232.312	255.2279	279.14	344.5534	354.7056	401.3993	435.9326	488.4109	509.5797	676.2096	772.6288	836.1891	877.3474	937.0308	949.7531	965.5417	1016.3909	1039.1245	1084.2141	1107.8121	1127.8577	1145.7955	1170.9738	1200.5901	1221.5456	1228.546	1268.2277	1300.9731	1336.2073	1364.5753	1376.9089	1388.0249	1440.056	1458.3002	1497.5053	1509.777	1513.7453	3000.9039	3005.2466	3016.3458	3031.7618	3041.9768	3070.5184	3078.6409	3776.5787	3827.5839	3843.9594
OCC1(O)COCC1O	OC[C@@]1(O)COC[C@H]1O	
InChI=1S/C5H10O4/c6-2-5(8)3-9-1-4(5)7/h4,6-8H,1-3H2	InChI=1S/C5H10O4/c6-2-5(8)3-9-1-4(5)7/h4,6-8H,1-3H2/t4-,5-/m1/s1
