15
gdb 11498	4.12968	1.20005	1.00474	2.4139	66.07	-0.2475	-0.076	0.1714	1141.1622	0.117831	-399.817521	-399.809433	-399.808489	-399.851901	28.238	
O	-0.7337370072	 1.4418601738	-0.3797449809	-0.251844
C	 0.2903516329	 0.9809728495	 0.0567081682	 0.10224
C	 1.5688888247	 1.7965900687	 0.259926704	 0.300245
O	 2.5736465533	 1.2695340412	 0.7069194653	-0.366408
N	 1.422268583	 3.0883895053	-0.1046286732	-0.314903
C	 2.4712094994	 4.0551057665	-0.0113984635	 0.082873
C	 2.6033938358	 5.1359710193	-1.0510502609	-0.285146
C	 2.1596543095	 5.4819456091	 0.3542424152	-0.285125
H	 0.4075549315	-0.0791672566	 0.3548522182	 0.118517
H	 0.5100911895	 3.3469343754	-0.4564525367	 0.264105
H	 3.3703302871	 3.6003961909	 0.3844723593	 0.138282
H	 3.6002760768	 5.416195026	-1.3720950875	 0.128925
H	 1.8551445947	 5.1720501175	-1.8359856236	 0.119657
H	 1.1176182571	 5.7470854997	 0.4997160599	 0.119659
H	 2.848030832	 6.0027025736	 1.0102300662	 0.128922
17.3418	92.8227	132.1888	178.8203	273.6318	356.2892	411.1225	514.3937	562.4893	635.6808	664.2074	762.9437	812.3582	876.2859	916.9072	937.8463	1025.3845	1034.1246	1064.2189	1072.8623	1138.8659	1195.8758	1196.9644	1234.5955	1261.052	1362.2238	1388.0051	1464.3164	1500.1398	1564.1914	1781.3304	1819.7514	2960.8245	3132.8182	3136.7071	3205.6413	3214.1278	3230.1292	3592.509
O=CC(=O)NC1CC1	O=CC(=O)NC1CC1	
InChI=1S/C5H7NO2/c7-3-5(8)6-4-1-2-4/h3-4H,1-2H2,(H,6,8)	InChI=1S/C5H7NO2/c7-3-5(8)6-4-1-2-4/h3-4H,1-2H2,(H,6,8)
