18
gdb 17253	4.23338	1.84866	1.82324	1.6408	70.89	-0.2411	0.0939	0.335	819.7549	0.155808	-347.766282	-347.759923	-347.758978	-347.796474	26.326	
C	-0.0288906117	 1.472886646	-0.0187181697	-0.335192
C	 1.2978352666	 0.7416095884	-0.0128903305	-0.33631
C	 0.0065351286	-0.0236041703	-0.0041387237	 0.427907
C	-0.5037589618	-0.9051598094	 1.157581647	-0.314114
C	-1.1174037822	-2.0168063557	 0.2738152081	 0.079576
C	-0.024437035	-2.3059718941	-0.780032516	-0.230405
C	-0.4743897353	-0.8807540915	-1.1727396282	-0.00299
O	-1.8290632831	-1.239861241	-0.743538386	-0.297992
H	-0.3334467804	 1.9848962949	 0.8884969965	 0.111889
H	-0.3325674549	 1.9736547479	-0.9329964799	 0.112291
H	 1.8885406692	 0.7511223836	-0.9242159228	 0.109297
H	 1.8901411138	 0.7603800123	 0.8964772045	 0.110885
H	 0.2890037888	-1.2705658356	 1.8175428742	 0.098477
H	-1.2698336517	-0.4107929904	 1.7602595882	 0.10976
H	-1.7200160819	-2.792717694	 0.7457297378	 0.078765
H	 1.0067628236	-2.4692809443	-0.4561890866	 0.095501
H	-0.3472865456	-3.0526419661	-1.5058862422	 0.10862
H	-0.410971527	-0.4762905007	-2.1836467307	 0.074036
139.1169	254.996	285.254	407.487	463.264	516.5153	582.0939	759.998	773.0007	821.1794	831.6763	868.5459	873.6796	890.5632	934.4211	943.6103	960.3179	979.5402	1004.0357	1038.3571	1057.0722	1074.6973	1078.253	1095.5405	1161.4668	1183.8752	1199.6712	1223.6944	1233.6392	1249.1744	1283.2423	1308.3434	1314.9979	1396.6319	1466.418	1478.6658	1493.0308	1507.5989	3053.7541	3066.592	3105.095	3115.918	3118.6458	3123.0179	3123.6768	3145.4041	3195.5086	3210.6252
C1CC11CC2CC1O2	C1CC21C[C@@H]1C[C@H]2O1	
InChI=1S/C7H10O/c1-2-7(1)4-5-3-6(7)8-5/h5-6H,1-4H2	InChI=1S/C7H10O/c1-2-7(1)4-5-3-6(7)8-5/h5-6H,1-4H2/t5-,6+/m0/s1
