19
gdb 98622	4.15035	1.04989	0.96246	2.5894	78.46	-0.2316	0.0159	0.2475	1289.7211	0.160112	-419.186471	-419.177612	-419.176668	-419.220906	32.365	
C	 0.310166952	 1.5623166155	 0.3265358102	-0.334716
N	 0.2616447254	 0.1236288318	 0.1596690528	-0.326453
C	-0.1225869947	-0.468551424	-1.0108432396	 0.438088
O	-0.4595901011	 0.1771847861	-1.9926475552	-0.39278
C	-0.0885252981	-1.9714867553	-0.9472064424	-0.114253
C	-0.9542757694	-2.8903672052	-1.7287327294	-0.045561
C	-1.2786459922	-2.4012133253	-3.1393246	-0.238981
C	 0.251983204	-2.2950756563	-3.3434538255	-0.146493
N	 0.5384981691	-2.8590395867	-1.9655294807	-0.162548
H	-0.0855430422	 2.0082955838	-0.5864381369	 0.172484
H	-0.2995418468	 1.8821548913	 1.1784793696	 0.126083
H	 1.3368493087	 1.915066042	 0.4782161197	 0.127784
H	 0.5729286922	-0.4600131804	 0.9175965934	 0.248957
H	 0.1590801741	-2.3556797585	 0.0409864688	 0.082309
H	-1.4319411901	-3.7298858555	-1.2303061562	 0.093008
H	-1.735752863	-3.1849280032	-3.7466894086	 0.102068
H	-1.8567022934	-1.4815124924	-3.2170369858	 0.132042
H	 0.6507872045	-2.9944179126	-4.0806331312	 0.106363
H	 0.6558443509	-1.2983133551	-3.5153776128	 0.132599
39.6144	80.7365	136.3842	178.3372	236.3508	295.5104	359.1076	371.1095	437.3119	470.8698	714.2565	739.3948	755.3899	782.278	791.371	824.938	896.9436	956.1457	964.5358	1012.7722	1045.6705	1055.5199	1071.1558	1133.0408	1153.671	1169.7293	1180.5642	1223.8071	1228.886	1241.0386	1270.8933	1297.4147	1370.0702	1432.6331	1445.2626	1474.3534	1491.1558	1497.1319	1500.5596	1559.0998	1758.5872	3027.5621	3078.3122	3079.8781	3085.4628	3114.6629	3141.0789	3145.0505	3155.49	3156.0635	3653.7241
CNC(=O)C1C2CCN12	CNC(=O)[C@H]1[C@H]2CCN12	
InChI=1S/C6H10N2O/c1-7-6(9)5-4-2-3-8(4)5/h4-5H,2-3H2,1H3,(H,7,9)	InChI=1S/C6H10N2O/c1-7-6(9)5-4-2-3-8(4)5/h4-5H,2-3H2,1H3,(H,7,9)/t4-,5-,8?/m1/s1
