15
gdb 32364	4.8203	1.00973	0.84454	3.177	72.61	-0.227	-0.0618	0.1653	1278.6337	0.114373	-453.99467	-453.986895	-453.985951	-454.027364	28.9	
O	 0.4972934138	 0.6715938372	-0.8820398144	-0.406722
C	-0.0313152512	 0.169858466	 0.333733509	-0.149056
C	-1.4164217726	-0.416175747	 0.1821658028	 0.224651
C	-1.9524865043	-0.718428561	-1.0305325682	-0.047006
N	-3.2047961008	-1.2562404123	-1.0962876442	-0.337937
C	-3.9949606491	-1.532917979	 0.0241958502	 0.387235
O	-5.1103826084	-2.0114931406	-0.0724059214	-0.385507
C	-3.3045332555	-1.1703349232	 1.2678931706	-0.108893
N	-2.1174498025	-0.6531897511	 1.3399330549	-0.268154
H	 0.0237459837	 1.482632239	-1.0948278172	 0.287099
H	 0.6687357194	-0.6053835794	 0.6675939311	 0.134495
H	-0.0553777845	 0.9308643625	 1.1264769333	 0.116301
H	-1.4234047296	-0.5572172896	-1.9604307701	 0.149018
H	-3.6228953005	-1.4846040161	-1.988349028	 0.268854
H	-3.8547935278	-1.3563120953	 2.1874510715	 0.135622
74.7609	119.2451	193.6272	282.8889	343.923	384.3233	413.8014	469.4519	503.4493	550.5481	636.1951	722.7546	774.9154	791.317	836.5092	896.6075	949.5472	987.5517	993.3529	1079.0463	1153.2983	1199.352	1216.8151	1284.0556	1307.3873	1376.7946	1401.0889	1408.4028	1465.7465	1497.0271	1567.4727	1667.864	1788.6406	3008.7593	3057.1403	3163.0185	3226.5968	3598.7919	3812.0307
OCC1=CNC(=O)C=N1	OCc1c[nH]c(=O)cn1	
InChI=1S/C5H6N2O2/c8-3-4-1-7-5(9)2-6-4/h1-2,8H,3H2,(H,7,9)	InChI=1S/C5H6N2O2/c8-3-4-1-7-5(9)2-6-4/h1-2,8H,3H2,(H,7,9)
