18
gdb 6486	3.37759	1.53355	1.26284	2.6419	68.19	-0.2413	-0.0139	0.2274	1016.7993	0.150747	-384.94718	-384.938218	-384.937274	-384.981149	32.157	
C	 0.6857198965	 1.0710631532	-1.3069154425	-0.481058
C	-0.3925977302	 0.178703473	-0.7305331536	 0.391163
O	-0.9205967501	 0.3922385209	 0.3369791244	-0.304074
C	-0.7541821762	-1.0576398947	-1.5593158969	-0.358424
C	 0.1433509962	-2.2348297104	-1.179529684	 0.412556
C	-0.0550328608	-2.8067891166	 0.2063933477	-0.45716
C	 0.7130985625	-3.0720847047	-2.2460612347	-0.23148
O	 1.5140577759	-2.0829231441	-1.5925848476	-0.27083
H	 1.5528047866	 0.4621347261	-1.5841407223	 0.165573
H	 0.3221202054	 1.5439434666	-2.2274346998	 0.136285
H	 0.9647461629	 1.8418018014	-0.5876277132	 0.137364
H	-1.7969665839	-1.3148954011	-1.3522306005	 0.124171
H	-0.6398234463	-0.8469454037	-2.6265356344	 0.105499
H	-1.0441153052	-3.2692671882	 0.2910456592	 0.124928
H	 0.7055488308	-3.5629493495	 0.4142358641	 0.126003
H	 0.008012197	-2.0228699073	 0.9658116026	 0.15078
H	 0.9856107113	-4.1047921781	-2.031657341	 0.11596
H	 0.4697766174	-2.8656012827	-3.2876948676	 0.112745
44.0813	96.3541	158.3515	173.504	193.7867	309.9034	338.5475	390.9363	396.3336	441.0802	521.051	594.8082	725.4575	800.5839	830.2765	895.9288	914.3701	933.0138	985.7288	1039.1408	1062.8656	1109.0757	1135.5705	1150.6314	1186.3636	1224.1008	1289.5708	1301.868	1381.5069	1399.2003	1424.2608	1461.4169	1471.2561	1474.5451	1485.176	1496.6568	1532.8079	1809.8422	3033.5584	3043.9093	3054.3175	3080.3006	3098.3687	3111.2887	3114.1389	3133.4325	3154.819	3166.3499
CC(=O)CC1(C)CO1	CC(=O)C[C@@]1(C)CO1	
InChI=1S/C6H10O2/c1-5(7)3-6(2)4-8-6/h3-4H2,1-2H3	InChI=1S/C6H10O2/c1-5(7)3-6(2)4-8-6/h3-4H2,1-2H3/t6-/m0/s1
