19
gdb 99494	2.58211	1.06561	0.86791	2.1791	79.44	-0.2212	0.0158	0.2369	1416.6868	0.156825	-419.155455	-419.144975	-419.144031	-419.191437	37.071	
C	 0.1941019079	 1.5192615218	-0.0243376901	-0.316147
N	-0.2515261071	 0.175590725	-0.3625226996	-0.275068
C	 0.6114990525	-0.5467765745	-1.2850465347	-0.201403
C	 2.0424168061	-0.5837825127	-0.9159619805	 0.363614
C	 3.1970224711	-0.5860474139	-0.5796075581	-0.508122
C	 0.11944952	-1.9864992171	-1.4214602725	 0.421789
N	-0.4684344718	-2.5638249398	-0.4629809291	-0.535217
O	 0.4474602619	-2.4657180925	-2.6439893039	-0.225731
C	 0.1570251101	-3.8310288486	-2.9112045927	-0.267583
H	 1.2005497679	 1.5695489759	 0.4205437487	 0.110153
H	 0.1973969299	 2.1430046462	-0.9263308798	 0.116324
H	-0.5195984514	 1.9583340852	 0.6782632717	 0.119034
H	-0.3836040358	-0.3992912644	 0.4630262859	 0.23981
H	 0.5330206711	-0.0811729865	-2.2763835688	 0.12314
H	 4.2185104533	-0.5933042246	-0.2890277331	 0.197793
H	-0.73195981	-3.5262896221	-0.6624189676	 0.222492
H	 0.6697687796	-4.4913011307	-2.2019556956	 0.135659
H	-0.9217836389	-4.0239244748	-2.8729491964	 0.133622
H	 0.5227582836	-4.0258079117	-3.9196076736	 0.145841
44.0008	100.4304	109.0481	152.1275	183.661	202.5049	210.7572	254.8272	314.6422	366.0227	398.2451	416.6089	589.5337	624.6088	644.4183	653.5452	725.8726	762.5835	849.9124	909.3259	943.3442	999.4418	1032.0315	1119.9139	1153.1592	1160.1351	1175.4907	1205.7553	1220.4093	1261.4616	1329.5089	1365.0208	1458.	1472.902	1484.9202	1491.6756	1494.0904	1503.9745	1521.2196	1744.5879	2220.8069	2979.5398	3018.1945	3023.6582	3054.2492	3083.4697	3105.269	3148.5115	3502.0365	3515.7964	3536.9493
CNC(C#C)C(=N)OC	CN[C@@H](C#C)[C]([NH])OC	
InChI=1S/C6H10N2O/c1-4-5(8-2)6(7)9-3/h1,5,7-8H,2-3H3	InChI=1S/C6H10N2O/c1-4-5(8-2)6(7)9-3/h1,5,7-8H,2-3H3/t5-/m0/s1
