19
gdb 61526	2.54714	1.10013	0.93901	4.1306	75.27	-0.2615	0.0204	0.2819	1325.2592	0.158023	-419.192975	-419.18318	-419.182236	-419.227965	35.643	
C	 0.3329382871	 0.0824113174	-1.8332809338	-0.454187
C	-0.1171028723	 0.3120873024	-0.4062877305	 0.398468
C	-1.5621316514	-0.0872076286	-0.1380450326	-0.279894
C	-2.1067027149	 0.1984925849	 1.2850733872	-0.13114
N	-3.5664354966	 0.2815817962	 1.3931649965	-0.506942
C	-1.6369190119	-0.8186499984	 2.241171548	 0.30335
N	-1.2609495857	-1.638000668	 2.9642436364	-0.332522
C	 0.8956481469	 0.3935286594	 0.6572717609	-0.228128
O	 0.2685571197	 1.5801249095	 0.148391268	-0.270163
H	 1.3494897366	 0.4550811318	-1.9782709951	 0.132817
H	 0.3129375167	-0.9842884628	-2.0806545647	 0.126845
H	-0.325921062	 0.6038690064	-2.5362321278	 0.125285
H	-2.19156795	 0.4852867429	-0.8317673329	 0.106313
H	-1.7044397429	-1.1453007659	-0.3870858679	 0.119712
H	-1.697736174	 1.1639673517	 1.6046143984	 0.153663
H	-3.8986282804	 1.0525656914	 0.8218426204	 0.239398
H	-3.9934035221	-0.5650026354	 1.0273865139	 0.23894
H	 0.6557591506	 0.1376862467	 1.6857300314	 0.141484
H	 1.9454778763	 0.2765244483	 0.3915102141	 0.116699
50.2345	89.1768	149.8013	190.7096	207.8108	232.5819	308.6539	322.3393	353.6166	369.7358	402.694	481.3879	566.8192	607.8818	728.725	798.9983	833.8606	855.8136	905.8945	937.7859	978.6681	1008.9338	1067.8324	1084.8007	1125.1568	1135.644	1171.7608	1194.632	1235.7543	1239.1204	1327.961	1371.6932	1401.8894	1417.6773	1428.5432	1471.6712	1485.1507	1497.7111	1541.7205	1656.3518	2358.8841	3022.7093	3036.4398	3055.4971	3073.4336	3096.0526	3099.4205	3127.8087	3189.0471	3490.7624	3576.8805
CC1(CC(N)C#N)CO1	C[C@@]1(C[C@@H](N)C#N)CO1	
InChI=1S/C6H10N2O/c1-6(4-9-6)2-5(8)3-7/h5H,2,4,8H2,1H3	InChI=1S/C6H10N2O/c1-6(4-9-6)2-5(8)3-7/h5H,2,4,8H2,1H3/t5-,6-/m1/s1
