15
gdb 54301	2.44744	1.62446	1.08428	3.1519	62.46	-0.2527	-0.0092	0.2435	1067.5644	0.112127	-491.128681	-491.120054	-491.119109	-491.162221	32.087	
N	 0.1887791154	 0.732865723	 1.1585448412	-0.520496
C	-0.1615772215	 0.3175656623	-0.0788014559	 0.351106
O	 0.4017829618	 0.6821922719	-1.1023360113	-0.389456
C	-1.3094222475	-0.6778844969	-0.0874275843	 0.17046
C	-1.1312470435	-1.9516958613	 0.6522689929	-0.183563
O	-1.9115828736	-0.8970310758	 1.1925225014	-0.254657
C	-2.3021032184	-0.7341538665	-1.2567569803	 0.362182
N	-1.9384345459	-0.0289075879	-2.3499581814	-0.552983
O	-3.3163044724	-1.3944904086	-1.1534547261	-0.364734
H	 0.9122555711	 1.4269206676	 1.2469182053	 0.27022
H	-0.397058572	 0.4967323729	 1.9429288035	 0.282829
H	-1.7028553753	-2.8102559898	 0.3091509439	 0.154538
H	-0.1833561583	-2.1453976488	 1.1507517897	 0.12749
H	-1.0183210012	 0.3936656211	-2.385774234	 0.286747
H	-2.5163643288	-0.1072088434	-3.1707262345	 0.260316
59.36	82.7266	245.1861	261.1622	280.2301	327.4649	387.849	399.6036	407.3942	447.5636	529.3028	605.0697	640.1889	680.443	685.4048	765.5586	776.1595	887.0433	907.3277	948.5577	1096.7604	1132.9043	1137.6469	1159.259	1176.1349	1315.6345	1380.4456	1399.4857	1493.921	1593.1569	1601.624	1769.62	1810.498	3097.337	3204.4943	3507.0498	3592.9157	3693.4163	3732.1095
NC(=O)C1(CO1)C(N)=O	NC(=O)C1(CO1)C(=O)N	
InChI=1S/C4H6N2O3/c5-2(7)4(1-9-4)3(6)8/h1H2,(H2,5,7)(H2,6,8)	InChI=1S/C4H6N2O3/c5-2(7)4(1-9-4)3(6)8/h1H2,(H2,5,7)(H2,6,8)
