18
gdb 29786	2.44211	1.52538	0.9505	2.0637	76.52	-0.1681	0.0481	0.2162	1214.0139	0.145304	-439.113717	-439.103243	-439.102299	-439.149358	36.306	
C	-0.0651178681	 1.4670516465	 0.0228990836	-0.338576
N	 0.045871258	 0.0261320326	-0.0058507523	-0.046262
C	 0.0990542975	-0.7603226695	-1.1562479427	-0.216646
C	 0.1343093973	-2.0677057518	-0.751146224	 0.246941
O	 0.2008023534	-3.1394698386	-1.5977727197	-0.450331
C	 0.0847311662	-2.1166084235	 0.6792510746	-0.001541
C	 0.0901639142	-3.338240127	 1.5454186523	-0.54014
C	 0.0301563308	-0.7959964283	 1.0785160643	 0.307226
O	-0.0554842349	-0.2287313705	 2.3144769381	-0.446523
H	 0.6120841287	 1.9050738886	-0.7158943594	 0.133829
H	-1.0861681891	 1.8029143782	-0.1962687525	 0.132005
H	 0.2135377361	 1.8261433784	 1.014176438	 0.1529
H	 0.1111199357	-0.3181614547	-2.1369717584	 0.112441
H	 0.2298344903	-3.9413599812	-1.0683500225	 0.292122
H	 1.072056193	-3.8281652215	 1.6041898733	 0.124684
H	-0.2096906509	-3.1010886774	 2.57294013	 0.109436
H	-0.6261863121	-4.0927478731	 1.1931296727	 0.124112
H	 0.2398830739	-0.8743141071	 2.9631530646	 0.304321
77.5001	89.8337	118.0843	124.7936	161.272	181.649	234.0066	265.8553	287.4856	317.9818	346.0294	557.8944	582.9485	586.2492	610.8297	649.4894	684.3353	745.6262	870.7724	1014.8654	1056.6568	1084.6322	1148.0504	1149.8423	1169.1969	1227.8212	1253.6912	1301.2229	1397.0419	1419.461	1439.4146	1456.8881	1483.4795	1491.8788	1502.9678	1512.2571	1571.5932	1603.2986	1668.6151	2997.0792	3024.1494	3038.8236	3069.4795	3089.1811	3148.6379	3282.911	3841.3604	3844.048
CN1C=C(O)C(C)=C1O	Cn1cc(O)c(C)c1O	
InChI=1S/C6H9NO2/c1-4-5(8)3-7(2)6(4)9/h3,8-9H,1-2H3	InChI=1S/C6H9NO2/c1-4-5(8)3-7(2)6(4)9/h3,8-9H,1-2H3
