19
gdb 88011	2.98904	1.29425	1.11195	1.8482	76.25	-0.2319	0.0711	0.303	1175.8039	0.157094	-422.971727	-422.963057	-422.962112	-423.00504	32.856	
C	-0.030044387	 1.463061089	-0.1555546369	-0.419382
C	 0.0385426126	-0.0307209057	 0.0217962387	-0.017847
O	 1.3535935498	-0.6317167012	 0.0045206569	-0.285324
C	 0.6155648432	-0.6625343031	 1.2066341859	 0.269941
C	 1.076508435	-0.0948678909	 2.5476057438	-0.159161
O	 0.6137234544	-1.2939153155	 3.2183492519	-0.318788
C	 0.2614265955	-1.9100460089	 1.974778121	 0.389367
C	-0.8587104155	-2.8841887094	 1.8348117551	-0.344025
C	 0.5854597014	-3.3286820786	 1.6453057069	-0.32735
H	 0.7252115425	 1.9660319794	 0.4542496322	 0.128446
H	 0.1389942649	 1.7348661389	-1.2024350643	 0.13406
H	-1.018473605	 1.8361510699	 0.1336592575	 0.127146
H	-0.7021200064	-0.6032617513	-0.5396230373	 0.094125
H	 2.1615166345	 0.0357888251	 2.6322805097	 0.118202
H	 0.5617911683	 0.8017375949	 2.9105810351	 0.110691
H	-1.3564332706	-3.1871715087	 2.7497819135	 0.12816
H	-1.5064199241	-2.8146108028	 0.9666137197	 0.116193
H	 0.9410151808	-3.5416553453	 0.6425885914	 0.128573
H	 1.0304848756	-3.9277340457	 2.4321605392	 0.126973
86.5886	130.8455	161.0594	190.2594	233.3648	258.4174	369.9423	429.354	461.0339	532.7395	565.4297	625.4064	756.23	794.5394	864.833	871.6225	893.0882	950.7743	967.5016	978.2187	1001.7281	1040.788	1048.7347	1063.3362	1077.9015	1112.2805	1134.4683	1151.453	1187.3741	1191.6643	1231.9055	1312.0429	1356.8515	1383.0739	1411.5622	1446.0457	1477.008	1487.9182	1493.5371	1514.2614	1550.9065	3025.7899	3037.7275	3076.1044	3091.5065	3103.5426	3123.7522	3127.1899	3133.2088	3212.4809	3228.7273
CC1OC11COC11CC1	C[C@H]1O[C@]21COC12CC1	
InChI=1S/C7H10O2/c1-5-7(9-5)4-8-6(7)2-3-6/h5H,2-4H2,1H3	InChI=1S/C7H10O2/c1-5-7(9-5)4-8-6(7)2-3-6/h5H,2-4H2,1H3/t5-,7+/m1/s1
