21
gdb 91363	2.09537	1.99939	1.4324	2.2427	77.24	-0.231	0.0701	0.3011	1017.8223	0.18462	-424.238198	-424.230218	-424.229273	-424.27018	32.495	
C	-0.079613733	 1.5506065405	-0.0827524958	-0.404254
C	 0.0126102757	 0.0371730699	 0.0342948549	 0.162642
O	 0.6446298955	-0.5167822341	-1.1481904526	-0.301072
C	 1.6027867466	-1.4779213735	-0.6899071476	 0.116054
C	 2.825225204	-0.7090805787	-0.151053377	-0.264088
C	 2.2875868336	-0.1747121333	 1.2197127118	 0.143791
O	 2.4340643003	 1.2180833102	 1.4348033939	-0.436919
C	 0.8051391363	-0.6098187634	 1.1934740131	-0.078457
C	 0.963687654	-2.0286986364	 0.5962078746	-0.241039
H	 0.904245607	 2.0096638168	-0.1601901642	 0.135299
H	-0.6693318278	 1.8066738542	-0.9685499584	 0.111997
H	-0.585476909	 1.9670952978	 0.7948148638	 0.106767
H	-1.0146025881	-0.3598795541	 0.0839432423	 0.065459
H	 1.803622433	-2.1788652147	-1.5015050066	 0.069855
H	 3.7022466323	-1.3529394047	-0.0275245388	 0.088727
H	 3.0844452905	 0.1146772563	-0.8210859181	 0.108715
H	 2.7764933287	-0.7186931736	 2.0423190451	 0.066439
H	 3.3748000514	 1.4196377716	 1.4401638257	 0.282899
H	 0.3041620472	-0.53003823	 2.1592045379	 0.067743
H	 0.0136235293	-2.5371788425	 0.4170559521	 0.104898
H	 1.6245226924	-2.6807189284	 1.1740858437	 0.094542
119.1344	182.4714	260.2131	267.2845	297.1973	349.1393	419.4509	452.4279	464.2547	546.4118	567.8072	724.4644	784.4316	811.1436	836.9703	848.948	920.5999	933.0672	946.812	958.9691	1000.4162	1010.8441	1050.0322	1070.6454	1078.7531	1124.484	1149.0459	1160.7671	1193.137	1206.231	1223.3345	1249.1636	1280.6358	1315.8194	1322.3008	1342.304	1368.624	1370.493	1398.5937	1416.7967	1438.4907	1475.1468	1489.1934	1494.2023	1501.0329	2956.057	2970.0189	3044.196	3046.9819	3062.6397	3103.7725	3105.2322	3107.7801	3110.7324	3118.4404	3169.7313	3821.6396
CC1OC2CC(O)C1C2	C[C@H]1O[C@H]2C[C@@H](O)[C@@H]1C2	
InChI=1S/C7H12O2/c1-4-6-2-5(9-4)3-7(6)8/h4-8H,2-3H2,1H3	InChI=1S/C7H12O2/c1-4-6-2-5(9-4)3-7(6)8/h4-8H,2-3H2,1H3/t4-,5-,6-,7-/m1/s1
