15
gdb 77305	3.39852	0.96443	0.81218	2.8373	62.64	-0.2607	-0.0348	0.2259	1337.3203	0.109891	-494.920936	-494.911887	-494.910943	-494.956284	30.645	
O	 0.1510415817	 1.4066280451	 0.243625778	-0.414816
C	 0.1655653706	 0.0143373537	 0.0980691152	-0.075667
C	-1.2087487618	-0.6734285926	 0.2671413551	 0.087237
C	-2.4212751276	 0.2259377831	 0.4416168388	-0.286801
C	-3.7237880677	-0.512877272	 0.1928535045	 0.148154
O	-4.6296529204	-0.5644194155	 0.9835198612	-0.231759
O	-1.1036345157	-1.2030356674	-1.1095319564	-0.254007
C	 0.0703028455	-0.5340007184	-1.3381843895	 0.420429
O	 0.6915957849	-0.4546898476	-2.3474185953	-0.318872
H	 0.9036780693	 1.7674103788	-0.2386082134	 0.309004
H	 0.9656643716	-0.4634155922	 0.6794896102	 0.115696
H	-1.2141688073	-1.5103312023	 0.9691934042	 0.116968
H	-2.4352806128	 0.6402552169	 1.4534503353	 0.140129
H	-2.3468663455	 1.0579072244	-0.2688356943	 0.141278
H	-3.7901467948	-1.011643014	-0.7976762634	 0.103027
53.3109	61.9918	99.1075	141.5221	161.4838	256.9548	266.8052	414.3531	439.4236	509.8152	576.6356	706.861	763.662	812.267	853.61	899.0936	934.2413	1027.5023	1067.1398	1111.6479	1128.8407	1171.028	1182.9924	1230.8668	1269.3887	1312.1175	1336.6048	1389.1027	1410.6136	1426.354	1450.7035	1834.1871	1940.7375	2910.0307	3018.7309	3048.0567	3091.6863	3116.1612	3811.0365
OC1C(CC=O)OC1=O	O[C@H]1[C@@H](CC=O)OC1=O	
InChI=1S/C5H6O4/c6-2-1-3-4(7)5(8)9-3/h2-4,7H,1H2	InChI=1S/C5H6O4/c6-2-1-3-4(7)5(8)9-3/h2-4,7H,1H2/t3-,4+/m1/s1
