18
gdb 13070	3.47755	1.28323	1.07823	1.7392	76.75	-0.2426	0.0461	0.2887	1163.256	0.152818	-347.772158	-347.763305	-347.762361	-347.806535	31.632	
C	-0.1325988192	 1.4497649576	-0.0091930487	-0.499272
C	-0.0599556523	-0.0053662508	 0.0010768044	 0.056292
C	 0.044785534	-1.207684183	 0.0087932916	 0.068927
C	 0.0875390736	-2.6585135303	 0.012060454	-0.226199
C	 0.2238157313	-3.2950953483	 1.4367260833	-0.224694
C	-1.3201948382	-3.4203228166	 1.5081214885	-0.248805
C	-1.3617689025	-3.2834097786	-0.0378731345	 0.167011
O	-2.3877376001	-2.5744588195	-0.660353689	-0.42797
H	 0.8567047317	 1.8948383123	 0.1442272013	 0.151772
H	-0.5188024734	 1.8236996566	-0.9637825793	 0.150759
H	-0.7894394183	 1.8238987147	 0.7838288059	 0.148284
H	 0.7853161536	-3.022175505	-0.7478456555	 0.095144
H	 0.7187340422	-4.2678060292	 1.3809458448	 0.1052
H	 0.7181803116	-2.6861947011	 2.1939238134	 0.110123
H	-1.7498711639	-4.3210616914	 1.9515310247	 0.099295
H	-1.7696972034	-2.5420268921	 1.9805517007	 0.105827
H	-1.319847353	-4.2659250765	-0.5175107384	 0.089886
H	-2.2491084237	-1.6399624988	-0.454679737	 0.278418
37.7051	89.7815	94.9024	166.7329	252.6526	300.659	361.8362	413.409	430.8584	468.9641	598.5854	645.4177	727.0515	752.0718	888.2861	917.8387	952.6376	972.7178	1047.1317	1051.6509	1054.6835	1078.1344	1144.4735	1157.9603	1194.9687	1222.0422	1244.2285	1256.7822	1260.5554	1340.7657	1351.9333	1414.785	1440.6357	1478.1407	1478.7588	1479.0563	1494.3858	2353.2015	3027.3186	3055.581	3061.7493	3067.7752	3075.0765	3088.0331	3088.8124	3116.901	3136.2775	3745.4929
CC#CC1CCC1O	CC#C[C@H]1CC[C@H]1O	
InChI=1S/C7H10O/c1-2-3-6-4-5-7(6)8/h6-8H,4-5H2,1H3	InChI=1S/C7H10O/c1-2-3-6-4-5-7(6)8/h6-8H,4-5H2,1H3/t6-,7+/m0/s1
