21
gdb 85869	2.14785	1.55441	1.23048	1.9584	78.53	-0.2505	0.0663	0.3168	1149.521	0.179782	-424.202978	-424.1933	-424.192355	-424.236821	36.958	
C	-0.8436903052	 1.0659414864	-0.0649406901	-0.417042
C	 0.1337117804	-0.0989480425	-0.0187911387	-0.061357
C	 1.5034069268	 0.029563285	-0.7578300838	-0.30673
C	 2.2192625443	-0.6338053343	 0.4669321833	 0.31474
C	 2.5048103346	-2.1220531954	 0.2978857542	-0.449568
O	 3.3370194139	 0.0505589688	 0.9988564555	-0.48041
C	 0.9381161198	-0.3565388701	 1.2609856006	 0.425134
C	 0.8474608838	 0.2862241929	 2.5698512492	-0.25934
O	 0.5123335631	-1.1013955349	 2.3859417586	-0.287453
H	-0.3554721131	 2.0022315809	 0.2258529435	 0.116086
H	-1.2492388058	 1.1988361407	-1.073572412	 0.116873
H	-1.6889000659	 0.9003123253	 0.6121522825	 0.122597
H	-0.3733371785	-1.023688512	-0.3175489082	 0.083448
H	 1.5994169209	-0.4714252432	-1.7239098924	 0.093578
H	 1.815021614	 1.0729078097	-0.8526229442	 0.106219
H	 3.3347272331	-2.2767833285	-0.4033070388	 0.10396
H	 2.7663611569	-2.5654062598	 1.2624669293	 0.137055
H	 1.635054172	-2.6550720193	-0.0971127264	 0.125409
H	 4.1302358349	-0.2817341564	 0.565591651	 0.276204
H	 1.7602351742	 0.4749337533	 3.130114972	 0.128928
H	 0.0057307258	 0.9386316833	 2.7972436749	 0.111669
76.319	179.2392	210.0348	222.2376	225.3305	241.9819	249.2548	267.6174	343.4528	363.2582	443.7406	505.253	534.3572	586.3977	649.3018	785.3335	855.8613	875.0728	892.4454	919.6567	942.7452	961.6978	989.581	1052.0761	1097.9461	1118.2927	1125.5666	1158.5193	1168.4321	1180.4454	1186.6665	1223.6153	1260.5922	1272.168	1363.0436	1373.8231	1404.8235	1408.2069	1438.8696	1480.0466	1488.9913	1494.118	1495.3469	1499.4068	1533.8761	3023.5509	3027.4924	3040.6192	3060.9602	3090.5159	3094.9486	3095.9602	3099.4257	3120.3508	3123.7392	3184.4561	3807.9694
CC1CC(C)(O)C11CO1	C[C@H]1C[C@@](C)(O)[C@]21CO2	
InChI=1S/C7H12O2/c1-5-3-6(2,8)7(5)4-9-7/h5,8H,3-4H2,1-2H3	InChI=1S/C7H12O2/c1-5-3-6(2,8)7(5)4-9-7/h5,8H,3-4H2,1-2H3/t5-,6+,7+/m0/s1
