20
gdb 79454	2.79239	1.74764	1.36841	1.6146	78.04	-0.2146	0.0783	0.2929	1015.3147	0.171909	-403.08751	-403.079858	-403.078913	-403.119217	30.874	
C	-0.2328272155	 1.6649701492	 1.2686618166	-0.418947
C	-0.1348351857	 0.2250704179	 0.772173755	 0.029181
C	 0.7766117002	 0.0087529079	-0.4568001712	 0.026799
O	 2.0425869517	 0.5631471875	 0.0115747744	-0.287589
C	 2.0975239209	-0.5853851635	 0.8537117352	 0.093179
C	 1.3243752959	-1.4771783919	-0.1203664399	-0.052626
N	 0.5931219292	-2.0760974422	 0.9849536126	-0.067689
C	-0.6811540561	-2.7456993636	 0.7923812815	-0.335924
C	 0.70645307	-0.7469692072	 1.6451278376	-0.082924
H	 0.7581806274	 2.1080017878	 1.3831381784	 0.137908
H	-0.8026135104	 2.2856580582	 0.5684985522	 0.110992
H	-0.745761027	 1.7035503862	 2.235731121	 0.108806
H	-1.1381307246	-0.1769663636	 0.6093769803	 0.071549
H	 0.4822868588	 0.3622989978	-1.4437046477	 0.075535
H	 3.0486566625	-0.791570508	 1.3385654505	 0.092807
H	 1.7424119033	-2.095412382	-0.9144993314	 0.082278
H	-0.5043376429	-3.68456083	 0.2567066774	 0.123252
H	-1.1073847664	-2.9966785097	 1.7692096767	 0.123104
H	-1.4365453641	-2.1773562255	 0.2270421345	 0.10262
H	 0.6097507629	-0.7110700955	 2.7305695962	 0.06769
159.6082	195.6596	204.3566	231.5519	270.8789	320.2263	532.8874	541.6873	583.0064	634.5677	729.042	751.231	764.0678	845.0598	854.4879	870.3707	919.2437	948.9187	969.9434	1001.1107	1017.2277	1044.5276	1086.0612	1104.9676	1122.8504	1134.7643	1158.0684	1174.2825	1182.2242	1198.0455	1218.7121	1239.5654	1270.3176	1282.2271	1327.6374	1336.7081	1374.9715	1405.3226	1449.4871	1489.4287	1494.767	1507.9485	1509.094	2974.2778	3034.8974	3059.7136	3078.192	3091.329	3098.4322	3114.8282	3120.0543	3135.8903	3137.8718	3156.6735
CC1C2OC3C2N(C)C13	C[C@H]1[C@H]2O[C@@H]3[C@H]2N(C)[C@H]13	
InChI=1S/C7H11NO/c1-3-4-7-5(8(4)2)6(3)9-7/h3-7H,1-2H3	InChI=1S/C7H11NO/c1-3-4-7-5(8(4)2)6(3)9-7/h3-7H,1-2H3/t3-,4-,5+,6-,7+/m1/s1
