21
gdb 93492	2.36988	1.42109	1.04423	3.5773	78.56	-0.2315	-0.0065	0.225	1209.6978	0.182861	-424.269884	-424.260819	-424.259875	-424.303367	34.905	
C	 0.0083368361	 1.5579157083	 0.0013734902	-0.406332
C	 0.051346263	 0.027043218	 0.022075628	 0.01756
C	 0.7112089745	-0.5391354299	-1.2564516786	-0.292189
C	 0.802777712	-2.0573734237	-1.238445426	 0.373877
O	 0.431034793	-2.7466878283	-2.1601776744	-0.310561
C	 1.4041794155	-2.6414239511	 0.0327122608	-0.281457
C	 0.7429013664	-2.051358138	 1.2929453948	-0.251891
C	 0.7569121023	-0.5164230735	 1.2750489438	 0.120458
O	 2.0914294472	-0.0093932905	 1.263000064	-0.434669
H	 1.0205038008	 1.9706608189	 0.0064768548	 0.135497
H	-0.509348503	 1.9217254196	-0.8916605448	 0.112961
H	-0.5199028919	 1.9481826797	 0.8780510916	 0.108254
H	-0.9802718872	-0.3483201242	 0.0654388329	 0.080436
H	 0.1690374636	-0.2320923765	-2.1542199736	 0.111497
H	 1.7323891943	-0.1413295049	-1.3205099965	 0.131031
H	 1.3217066282	-3.729725069	-0.0034850808	 0.114268
H	 2.4692145253	-2.3766270037	 0.0429036508	 0.122949
H	-0.2964920761	-2.3942620749	 1.3693420726	 0.109419
H	 1.2555635093	-2.4185917501	 2.1911447117	 0.090936
H	 0.2233753694	-0.1419593927	 2.1631817345	 0.062603
H	 2.5329887275	-0.3071962536	 2.0642318344	 0.285349
88.3118	127.7577	189.2672	226.9568	258.9102	283.5327	296.6496	370.815	404.8409	423.1237	502.4327	542.8798	607.142	683.0446	763.4476	808.8231	852.3593	878.7238	955.268	963.0551	971.8505	996.8585	1054.0432	1092.0303	1109.72	1125.3318	1139.1477	1214.9608	1219.2606	1240.694	1271.0298	1298.0855	1325.9088	1343.5104	1362.0498	1370.2454	1394.0879	1406.6507	1431.0456	1458.3104	1469.6194	1490.2285	1494.5857	1503.8698	1816.3645	2969.7112	3011.6486	3023.318	3033.6312	3036.0879	3037.8546	3061.2569	3099.6688	3105.7471	3113.8353	3123.9015	3823.3094
CC1CC(=O)CCC1O	C[C@H]1CC(=O)CC[C@H]1O	
InChI=1S/C7H12O2/c1-5-4-6(8)2-3-7(5)9/h5,7,9H,2-4H2,1H3	InChI=1S/C7H12O2/c1-5-4-6(8)2-3-7(5)9/h5,7,9H,2-4H2,1H3/t5-,7+/m0/s1
