15
gdb 25380	3.86896	1.28171	0.97473	5.5187	77.11	-0.2383	-0.0486	0.1897	1140.1542	0.114539	-416.823772	-416.816444	-416.8155	-416.85623	26.46	
O	-0.0795757244	-0.1390768147	 0.2676072422	-0.275368
C	-0.0390019641	 1.0448125113	 0.0061382448	 0.076345
C	 1.1786674034	 1.8196447322	-0.113773677	 0.116297
C	 2.526750265	 1.4666141805	 0.0223331497	-0.127059
N	 3.3828348495	 2.5191060089	-0.1743381826	-0.361429
C	 2.5521135706	 3.5138906792	-0.4312369854	 0.384106
C	 2.2828950682	 4.9694355903	-0.765903169	-0.367495
C	 0.7639676162	 4.5310493625	-0.7340651038	-0.173234
N	 1.2579678733	 3.1718864318	-0.4110714053	-0.054942
H	-0.9717823018	 1.6302528846	-0.163962522	 0.059065
H	 2.893401403	 0.4785580762	 0.2574997818	 0.1445
H	 2.5647587639	 5.6959411797	-0.0010018065	 0.145218
H	 2.6396989538	 5.3099402573	-1.7401083214	 0.145206
H	 0.1606081559	 4.9755629679	 0.0600770901	 0.144394
H	 0.2358574875	 4.5875334924	-1.6881139356	 0.144396
73.0403	146.2336	160.2631	225.0701	291.3995	386.512	545.8677	623.0956	688.1334	691.9623	799.1514	812.5183	842.4405	884.909	901.7578	1026.1147	1059.328	1065.1981	1136.3175	1150.152	1175.2393	1182.3809	1224.3329	1263.2911	1295.3698	1365.0001	1435.8704	1456.6716	1474.0426	1487.4432	1518.36	1571.2585	1779.7711	2861.2247	3073.8786	3080.8082	3126.1467	3139.0296	3257.2614
O=CC1=CN=C2CCN12	O=Cc1cnc2CCn12	
InChI=1S/C6H6N2O/c9-4-5-3-7-6-1-2-8(5)6/h3-4H,1-2H2	InChI=1S/C6H6N2O/c9-4-5-3-7-6-1-2-8(5)6/h3-4H,1-2H2
