21
gdb 38213	3.14814	1.75608	1.43055	0.1248	86.46	-0.2346	0.0236	0.2582	983.7182	0.186884	-349.949169	-349.942594	-349.94165	-349.979581	29.026	
C	 0.0172428037	 1.6272445581	 0.0089498327	-0.243321
C	 1.537578148	 1.33377772	 0.032818964	-0.015713
C	 1.1634544515	 0.0780526385	 0.9008423852	-0.319569
C	-0.0773523095	 0.0721767862	-0.0316946306	 0.372257
C	-1.438738747	-0.6119699908	-0.0695740221	-0.40903
C	-1.7368346293	-0.5340089614	-1.5661481682	-0.05279
C	-0.6391765287	-0.301576574	-2.2952322313	-0.127259
C	 0.5754434997	-0.259652156	-1.3980066304	-0.001736
C	 1.7357025204	 0.7806045729	-1.4021719478	-0.259047
H	-0.3565109011	 2.0275946286	 0.9553245476	 0.087734
H	-0.3884033017	 2.1974803923	-0.8310492517	 0.090175
H	 2.2592690454	 2.0692306628	 0.3904079128	 0.057073
H	 1.8257590992	-0.7931597423	 0.8779204637	 0.084992
H	 0.9441094501	 0.3578631156	 1.9343562234	 0.093831
H	-1.3895372249	-1.6609090612	 0.2592512799	 0.104482
H	-2.1964625187	-0.1190741315	 0.5493469276	 0.098117
H	-2.7340042606	-0.6814884163	-1.9673761655	 0.088087
H	-0.6080245006	-0.2439532102	-3.3777733599	 0.088217
H	 1.0109441228	-1.2702485169	-1.3721463471	 0.075992
H	 1.6188469568	 1.5704056081	-2.1510301084	 0.097838
H	 2.7116508945	 0.3120396177	-1.5573538039	 0.08967
194.8863	270.6204	358.8667	390.622	442.8361	503.0708	545.0936	615.1094	660.0016	749.8003	773.1607	824.6518	826.5433	869.0586	887.163	904.6249	926.825	943.1546	962.046	965.8794	999.8638	1016.9107	1043.8829	1080.0431	1088.0793	1099.2384	1126.6388	1133.2864	1167.4079	1177.4366	1192.7288	1234.3353	1242.4131	1256.979	1275.3836	1306.1842	1308.3068	1324.2893	1343.7923	1375.1162	1481.904	1488.9334	1497.855	1528.3906	1649.1135	2975.1631	2998.8545	3046.0067	3048.3495	3054.6324	3060.217	3092.0113	3105.3153	3108.3053	3113.0274	3176.5665	3201.7668
C1C2CC11CC=CC1C2	C1[C@H]2C[C@]31CC=C[C@H]3C2	
InChI=1S/C9H12/c1-2-8-4-7-5-9(8,3-1)6-7/h1-2,7-8H,3-6H2	InChI=1S/C9H12/c1-2-8-4-7-5-9(8,3-1)6-7/h1-2,7-8H,3-6H2/t7-,8-,9+/m0/s1
