14
gdb 48574	5.90605	0.94949	0.93994	2.0878	68.87	-0.2797	-0.0635	0.2162	1202.8497	0.098903	-436.626149	-436.61818	-436.617236	-436.659816	28.519	
O	-0.1759058617	 0.1905550025	-0.3245671415	-0.237425
C	 0.1244298566	 1.2020651993	 0.2531274889	 0.03716
C	 1.4268710658	 1.9040023622	 0.0322627436	 0.29116
C	 2.8765579373	 1.3513166747	 0.0596509435	-0.279313
C	 2.9094525543	 2.9018084632	-0.0142857177	 0.313648
C	 1.8273793489	 2.8688764753	-1.1257647287	-0.278898
O	 1.8316746036	 2.9557028691	 1.001877199	-0.349976
C	 4.0359149436	 3.7917435183	 0.1249210761	 0.184031
N	 4.9524501289	 4.4905125191	 0.2047663775	-0.333916
H	-0.5444478672	 1.7015517542	 0.9861292617	 0.111974
H	 3.1922148834	 0.9332652506	 1.0145792389	 0.138833
H	 3.2280117541	 0.7908746752	-0.8069448874	 0.131728
H	 2.0920778385	 2.4286538851	-2.0877915355	 0.13217
H	 1.2249658136	 3.7732264712	-1.2014274584	 0.138824
30.1887	114.3239	135.9642	219.3035	264.2733	413.6567	498.8926	515.6273	554.2484	565.5433	607.515	685.7138	767.8397	799.9639	943.0755	951.6627	984.533	1018.7205	1080.6647	1085.5889	1125.0675	1134.4269	1148.2546	1167.3139	1233.0242	1347.7423	1404.1544	1465.6361	1511.358	1826.9349	2363.9497	2912.4266	3086.4785	3093.3877	3175.5458	3180.3409
O=CC12CC(C1)(O2)C#N	O=C[C@@]12C[C@@](C1)(O2)C#N	
InChI=1S/C6H5NO2/c7-3-5-1-6(2-5,4-8)9-5/h4H,1-2H2	InChI=1S/C6H5NO2/c7-3-5-1-6(2-5,4-8)9-5/h4H,1-2H2/t5-,6+
