12
gdb 24797	3.61767	1.30835	0.96085	3.4112	72.26	-0.2635	-0.0912	0.1722	1106.0673	0.079299	-431.694539	-431.687523	-431.686579	-431.726416	25.617	
N	-0.0950776568	 1.32520944	 0.1161048078	-0.512187
C	-0.0403875269	 0.0602157837	-0.0259182142	 0.328542
C	-1.2430590529	-0.7622928964	-0.1332237014	-0.144067
C	-1.1355144344	-2.0836239959	-0.2810712992	 0.03497
O	 0.0801479983	-2.719128239	-0.338042302	-0.213339
C	 1.1670447812	-1.9112328201	-0.2334704775	 0.317654
N	 1.1908291441	-0.6491326557	-0.0910646041	-0.336795
C	 2.3911403478	-2.671244932	-0.3052809215	 0.287248
N	 3.3744977726	-3.2744055923	-0.3621027459	-0.301471
H	 0.8533308982	 1.7023470757	 0.170079441	 0.232805
H	-2.2133670196	-0.2862265231	-0.0912396415	 0.145525
H	-1.9474486016	-2.7916828549	-0.3708383716	 0.161115
114.7192	139.5255	157.5959	391.1408	401.344	419.9397	496.2258	522.932	580.2378	693.8564	745.7868	760.2993	846.841	912.2849	925.9558	941.9399	972.4496	1025.1562	1134.0359	1226.7508	1240.9563	1351.7327	1416.65	1638.9395	1701.2049	1729.5208	2370.0072	3230.4112	3250.6881	3469.1215
N=C1C=COC(=N1)C#N	[NH]C1=CCOC(=N1)C#N	
InChI=1S/C5H3N3O/c6-3-5-8-4(7)1-2-9-5/h1-2,7H	InChI=1S/C5H4N3O/c6-3-5-8-4(7)1-2-9-5/h1,7H,2H2
