19
gdb 76179	2.10766	1.43461	1.19916	2.09	79.16	-0.2377	0.0246	0.2623	1161.3284	0.154356	-422.978588	-422.968072	-422.967127	-423.013227	39.192	
C	-0.028383018	 1.4999262725	 0.0466681261	-0.421636
C	 0.0220809635	-0.0075626161	-0.0368818704	-0.137926
C	 0.6572856537	-0.7243223291	-1.2101935029	 0.381903
C	 0.015940191	-1.9547600235	-1.7968001653	-0.444606
O	 1.305172065	 0.0380359113	-2.1827082337	-0.474574
C	 1.3499755377	-0.7623776545	 0.1543732931	 0.048811
O	 2.5362426687	 0.0004097309	 0.1525528231	-0.465447
C	 1.3914562852	-1.9497217364	 0.9600721351	 0.327103
C	 1.4189672874	-2.9339255158	 1.6523830879	-0.446115
H	 0.792496059	 1.9603190754	-0.5057359148	 0.124363
H	-0.9624267823	 1.8686072836	-0.3890836956	 0.128996
H	 0.0108067599	 1.8483129952	 1.0849916089	 0.112909
H	-0.8268265689	-0.5211994917	 0.4065265364	 0.095727
H	-0.7389786652	-1.6627591879	-2.533969733	 0.126522
H	 0.7665317707	-2.5699062701	-2.3019794029	 0.127945
H	-0.4653252812	-2.5566788527	-1.0231349812	 0.124871
H	 2.1168934314	 0.3744811058	-1.7780434673	 0.29909
H	 2.586160453	 0.4975867695	 0.9763677497	 0.29748
H	 1.4513554292	-3.8076698565	 2.2549467268	 0.194584
99.578	119.3121	144.23	191.2394	199.9592	216.402	256.0663	273.9872	310.8376	363.799	414.2934	444.1267	468.0767	533.7025	568.079	575.9363	621.4353	676.569	700.6613	742.7114	789.85	971.3914	981.5537	1017.1698	1087.2332	1094.8013	1119.1557	1131.3586	1198.2161	1237.7597	1280.0777	1334.7411	1369.1424	1412.823	1416.322	1452.3647	1479.4157	1490.5256	1497.2204	1505.2696	2226.1695	3035.5444	3042.9004	3092.9504	3109.1557	3129.6889	3133.5265	3149.5315	3501.6276	3742.2762	3803.6623
CC1C(C)(O)C1(O)C#C	C[C@H]1[C@@](C)(O)[C@]1(O)C#C	
InChI=1S/C7H10O2/c1-4-7(9)5(2)6(7,3)8/h1,5,8-9H,2-3H3	InChI=1S/C7H10O2/c1-4-7(9)5(2)6(7,3)8/h1,5,8-9H,2-3H3/t5-,6+,7-/m0/s1
