23
gdb 110504	2.55072	1.39079	1.14698	0.2487	89.02	-0.2403	0.0915	0.3318	1221.1754	0.205946	-351.116979	-351.108145	-351.107201	-351.150208	35.029	
C	 0.0459836678	 1.5335085355	 0.1171105727	-0.379267
C	-0.0945854803	 0.0112805414	-0.0050938072	-0.210565
C	 0.6859987587	-0.5537816946	-1.1896030857	 0.011096
C	 2.211528152	-0.6601307893	-1.1651498726	-0.076745
C	 2.5779113036	-2.0276409594	-0.5631217356	-0.063726
C	 1.2783489631	-2.7526806778	-0.2284414079	-0.27572
C	 0.69480174	-2.0882662967	-1.5120075834	 0.297176
C	-0.4410288753	-2.7247177025	-2.2694096677	-0.510248
C	 2.1926917981	-1.9039745648	-2.0167198004	-0.139166
H	 1.0937457468	 1.823691824	 0.2513576301	 0.116605
H	-0.3235663248	 2.0394343719	-0.7820357333	 0.111574
H	-0.5175722825	 1.920064183	 0.9720216628	 0.109062
H	 0.2427186336	-0.4560722981	 0.9264919491	 0.097192
H	-1.1565080491	-0.2480859041	-0.1158379152	 0.089699
H	 0.3880453189	-0.0237963241	-2.1047338675	 0.059125
H	 2.9402674456	 0.1405103532	-1.1957817789	 0.077729
H	 3.5658345312	-2.2054797197	-0.15736309	 0.079549
H	 1.3871458109	-3.8327281208	-0.3700146975	 0.091449
H	 0.7787903919	-2.5637970543	 0.7285319461	 0.084784
H	-1.3638561452	-2.7109128736	-1.6766317721	 0.117785
H	-0.6418512694	-2.1959834689	-3.2079539012	 0.11443
H	-0.222398175	-3.7702409117	-2.5136998926	 0.114617
H	 2.7055315493	-2.1626894888	-2.9319465119	 0.083567
75.8769	160.9409	179.4962	212.6821	241.5839	264.184	305.4856	371.8062	503.7292	549.1101	602.2494	691.9143	760.0099	779.0373	791.6722	809.8248	822.257	894.9398	928.112	933.6777	958.3519	988.2094	993.6481	1008.593	1030.0496	1038.9004	1072.0307	1110.7993	1122.1122	1141.3641	1159.6345	1168.0248	1187.7062	1219.7274	1244.0769	1287.7803	1302.5431	1336.8968	1344.4797	1366.1808	1406.5724	1413.4786	1416.5546	1483.8659	1489.6128	1493.5493	1500.1577	1506.4018	1508.9964	3009.4376	3014.5853	3019.552	3029.2562	3033.0311	3064.7214	3081.8088	3084.1267	3089.2534	3097.3591	3100.861	3184.7174	3193.1027	3219.2572
CCC1C2C3CC1(C)C23	CC[C@H]1[C@H]2[C@H]3C[C@]1(C)[C@@H]23	
InChI=1S/C9H14/c1-3-6-7-5-4-9(6,2)8(5)7/h5-8H,3-4H2,1-2H3	InChI=1S/C9H14/c1-3-6-7-5-4-9(6,2)8(5)7/h5-8H,3-4H2,1-2H3/t5-,6+,7-,8-,9+/m1/s1
