18
gdb 128813	4.80526	0.82016	0.72111	2.3758	76.82	-0.2055	0.0364	0.2418	1564.4555	0.148428	-435.269562	-435.260207	-435.259263	-435.304578	33.264	
C	-0.1537133715	 1.4330102962	-0.2067485437	-0.217735
O	-0.0889816353	 0.0371996575	-0.3633719441	-0.234373
C	-1.1957267771	-0.6248970404	 0.2214923651	-0.171386
C	-1.0187327834	-2.1009073026	 0.0706091898	 0.350996
N	-2.0316895818	-2.8589950828	-0.3305302829	-0.304763
N	-1.5232036806	-4.1192371681	-0.3217561357	-0.245009
C	-0.2192489283	-4.1642793263	 0.053926554	 0.394485
N	 0.4593162462	-5.3807210153	 0.1707013058	-0.608066
C	 0.1490287117	-2.8609666326	 0.3237986731	-0.356568
H	 0.7386079305	 1.8571196291	-0.6740425834	 0.123585
H	-1.0456775299	 1.8602499575	-0.6925989276	 0.103369
H	-0.1728020558	 1.7267381555	 0.8557145574	 0.099872
H	-1.2653630991	-0.3513479158	 1.2898255716	 0.090854
H	-2.1416346777	-0.3240990783	-0.2541708429	 0.104749
H	-2.1259416694	-4.8955719504	-0.5333266247	 0.266403
H	 0.405946258	-5.9508232515	-0.6658962867	 0.249697
H	 1.4320058285	-5.2392078453	 0.4084154966	 0.256309
H	 1.1198933948	-2.5022809262	 0.6225137083	 0.097581
44.857	87.1305	109.6673	171.2997	222.5063	237.9571	316.8202	348.8813	384.5013	420.7841	475.3845	648.5969	672.206	702.2646	758.2924	789.3098	811.1287	986.085	1002.5939	1024.7608	1048.8909	1110.0862	1149.7068	1160.4661	1184.4379	1186.9823	1225.6472	1249.5362	1339.6973	1400.4304	1441.7832	1477.2049	1484.8589	1499.3946	1507.6225	1521.6591	1540.1502	1620.9625	1661.2598	2938.3088	2964.6357	3004.1782	3007.2636	3110.7834	3271.8039	3526.5831	3624.9853	3677.8069
COCC1=NNC(N)=C1	COCc1n[nH]c(N)c1	
InChI=1S/C5H9N3O/c1-9-3-4-2-5(6)8-7-4/h2H,3H2,1H3,(H3,6,7,8)	InChI=1S/C5H9N3O/c1-9-3-4-2-5(6)8-7-4/h2H,3H2,1H3,(H3,6,7,8)
