20
gdb 9380	5.42522	0.77761	0.70817	1.3229	78.12	-0.2638	0.0339	0.2977	1614.2712	0.174102	-348.974399	-348.964301	-348.963357	-349.009772	35.952	
C	-0.0204336809	 1.5829600597	 0.0694056627	-0.379132
C	-0.0121630609	 0.0531485846	 0.0055433478	-0.171525
C	 0.7018729047	-0.4906370777	-1.2363146472	-0.160261
C	 0.7107329331	-2.0199895384	-1.3045432426	-0.193649
C	 1.4784397886	-2.5581468493	-2.5278442677	-0.063774
O	 2.8318585838	-2.1064679654	-2.5546611382	-0.415157
C	 1.4017018141	-4.0205812108	-2.6020851011	 0.295849
C	 1.3633984886	-5.2222972956	-2.6162353888	-0.441348
H	 0.9993010673	 1.9832939663	 0.0829186717	 0.11501
H	-0.5309934628	 2.0126459229	-0.7996732789	 0.113927
H	-0.5321247906	 1.9431582438	 0.9673966523	 0.11055
H	 0.4716800976	-0.3485888954	 0.9058935993	 0.093578
H	-1.044605532	-0.3206136641	 0.0260416612	 0.093686
H	 0.2175402845	-0.0908665961	-2.1385185568	 0.091048
H	 1.7359675167	-0.128840321	-1.2615340403	 0.110181
H	 1.1680780317	-2.4394065561	-0.39808768	 0.094752
H	-0.3141914357	-2.4091746279	-1.3409585253	 0.10671
H	 1.0306922121	-2.1323768939	-3.4350252005	 0.116932
H	 3.3133869219	-2.6033344792	-1.8836166506	 0.28423
H	 1.3253742083	-6.2831635164	-2.6509900869	 0.198392
59.7762	79.3649	97.1771	145.9596	183.6008	231.4071	247.0066	298.8038	309.8879	368.9687	454.0495	560.3381	572.829	630.1013	670.5162	737.354	790.5617	863.5147	907.0782	943.6821	996.0741	1028.2765	1066.9351	1075.7938	1123.2333	1137.2664	1230.4841	1255.4755	1281.4508	1315.1818	1330.7929	1337.9138	1373.3187	1396.4928	1412.0206	1419.7601	1476.843	1486.2486	1499.3081	1500.09	1513.108	2231.3012	3007.3252	3011.7315	3019.5729	3029.6647	3032.537	3039.7623	3057.4867	3079.1678	3097.0086	3101.6318	3503.0216	3803.6055
CCCCC(O)C#C	CCCC[C@@H](O)C#C	
InChI=1S/C7H12O/c1-3-5-6-7(8)4-2/h2,7-8H,3,5-6H2,1H3	InChI=1S/C7H12O/c1-3-5-6-7(8)4-2/h2,7-8H,3,5-6H2,1H3/t7-/m0/s1
