18
gdb 110516	2.72359	1.61293	1.29616	2.1275	71.16	-0.2347	0.0615	0.2961	1027.0544	0.147132	-439.000952	-438.992901	-438.991957	-439.03345	31.032	
C	 0.0838370352	 1.2578879385	 0.2061297616	-0.246313
O	-0.0006206921	-0.0897142501	-0.2215261616	-0.258608
C	-1.2736236067	-0.6455481345	-0.0588079082	 0.139341
C	-1.4797482949	-2.0577196515	-0.5722302286	-0.097399
C	-2.4116692008	-2.3842447607	 0.5367547349	-0.145506
N	-1.0861801225	-3.0490948788	 0.4890737927	-0.145273
C	-0.599045103	-2.2128460286	 1.6389944787	-0.207293
C	-1.7035727519	-1.1927338987	 1.3295549495	 0.29743
O	-2.2165691568	-0.2830200002	 2.2331958541	-0.476869
H	 1.1034381342	 1.5952164383	 0.0065087219	 0.126189
H	-0.6186303183	 1.897877104	-0.3494931861	 0.107503
H	-0.1294263548	 1.3620290963	 1.2777840786	 0.124603
H	-2.0560856972	 0.0245451261	-0.4467375729	 0.077292
H	-1.4694675669	-2.4089348251	-1.5949544172	 0.102479
H	-3.3675414742	-2.8888567027	 0.5691870972	 0.101509
H	-0.7730689268	-2.7716708465	 2.5642366966	 0.095797
H	 0.4407755007	-1.8792441793	 1.5738609014	 0.117479
H	-2.3594917731	-0.7280485964	 3.0758115372	 0.287639
90.5901	153.2727	172.1509	275.0762	311.5717	333.5781	371.8759	392.4025	514.1441	591.4821	646.7504	731.5479	782.2426	805.9587	863.4335	897.7482	937.5986	977.2559	1003.7148	1012.3926	1039.2969	1069.3873	1084.908	1136.2179	1152.7657	1169.1587	1180.5993	1189.499	1227.126	1240.4409	1269.4321	1311.7431	1345.0046	1375.3768	1416.8644	1481.4171	1488.8834	1496.879	1512.2321	2986.273	2997.9144	3044.2314	3050.3615	3107.6926	3120.4352	3205.6684	3218.819	3799.917
COC1C2C3N2CC13O	CO[C@H]1[C@@H]2[C@H]3N2C[C@@]13O	
InChI=1S/C6H9NO2/c1-9-5-3-4-6(5,8)2-7(3)4/h3-5,8H,2H2,1H3	InChI=1S/C6H9NO2/c1-9-5-3-4-6(5,8)2-7(3)4/h3-5,8H,2H2,1H3/t3-,4+,5-,6-,7?/m0/s1
