15
gdb 30513	2.62681	1.6548	1.02167	2.045	75.31	-0.2153	-0.048	0.1674	1106.4301	0.112886	-453.969375	-453.961328	-453.960384	-454.002645	29.268	
C	-0.1629664027	 1.4158078921	 0.0604678058	-0.323609
N	-0.1787879682	-0.0366869684	 0.0895197488	-0.291841
C	 0.6246782494	-0.6320541107	 0.8601932483	 0.34892
O	 1.5122948617	 0.0507344024	 1.6714228165	-0.242493
C	 2.3623140306	-0.6362292268	 2.4877500981	 0.024723
C	 2.3655843102	-1.973229371	 2.5307380028	-0.090957
N	 1.5067265852	-2.7365468072	 1.7496596458	-0.351897
C	 0.7004780249	-2.1020879719	 0.975734285	 0.360152
O	-0.1553320631	-2.7666018043	 0.1945371762	-0.373725
H	 0.8179385421	 1.806240732	-0.2424499916	 0.125675
H	-0.9131366467	 1.7669864612	-0.6507743103	 0.125343
H	-0.3856719079	 1.8453610701	 1.046493688	 0.125641
H	 2.9978877456	 0.0223217176	 3.0631704075	 0.1373
H	 3.0436811985	-2.5096241493	 3.1815218454	 0.12238
H	 0.0012066205	-3.7068518658	 0.3694492136	 0.304387
54.3325	104.1996	196.4067	203.4619	260.0255	342.5797	501.9179	516.2986	550.5847	570.1225	578.5662	617.5997	749.3912	781.9941	794.9629	898.6739	914.5034	1031.2732	1052.4731	1089.8021	1103.5109	1166.4975	1193.6797	1261.378	1298.1883	1412.8006	1434.4916	1455.0328	1484.621	1496.9129	1634.8938	1677.201	1747.0656	3002.6266	3052.6798	3116.1577	3213.9961	3242.0607	3748.2442
CN=C1OC=CN=C1O	C[N]C1=C([N]C=CO1)O	
InChI=1S/C5H6N2O2/c1-6-5-4(8)7-2-3-9-5/h2-3H,1H3,(H,7,8)	InChI=1S/C5H6N2O2/c1-6-5-4(8)7-2-3-9-5/h2-3H,1H3,(H,7,8)
