19
gdb 94418	2.40945	1.39476	1.23549	3.4682	76.44	-0.2319	-0.0215	0.2104	1119.4641	0.158441	-423.022666	-423.013969	-423.013025	-423.056696	32.737	
O	 0.5570288343	 0.7777903281	-0.6649057177	-0.417851
C	 0.129956743	-0.2819417335	 0.141698761	 0.100919
C	-0.0229463547	-0.0921385406	 1.6684195308	-0.267595
C	-1.2843305566	-0.9937048539	 1.6074568813	-0.299641
C	-1.3735067001	-0.7621270473	 0.0786641804	 0.202153
C	-2.4217452219	 0.1752506427	-0.5891666759	-0.31864
C	-2.6530635558	-0.8746144272	-1.7213413222	-0.336286
C	-1.7657067059	-1.8425409198	-0.9219547594	 0.337856
O	-1.5046997081	-3.0098721411	-1.0059498123	-0.309917
H	 0.1365741767	 1.5851560761	-0.3507112824	 0.283528
H	 0.7817971041	-1.1284735871	-0.0938841523	 0.113472
H	 0.8106533329	-0.3934125957	 2.3067518152	 0.109674
H	-0.2868634626	 0.9451115602	 1.9053295685	 0.095708
H	-1.0621517209	-2.0418268664	 1.8252917613	 0.127944
H	-2.1512043832	-0.685350889	 2.1956376935	 0.107194
H	-3.3043757089	 0.3455168467	 0.0317314587	 0.109877
H	-2.0372819335	 1.1380850681	-0.9329717634	 0.094947
H	-3.6781144508	-1.2108486368	-1.8977575835	 0.12856
H	-2.2066693279	-0.5998010733	-2.6823204317	 0.1381
42.6952	92.4296	130.4072	225.1469	258.4073	323.9501	380.4045	422.765	496.0158	528.1832	590.8739	661.8276	726.6942	737.023	780.969	844.0951	871.7647	930.2715	942.4021	963.7749	1034.5786	1050.8798	1080.0669	1110.5059	1145.2922	1160.2151	1186.2567	1210.4088	1220.7665	1232.9353	1244.3028	1261.7286	1282.9516	1293.4545	1321.3013	1428.2217	1433.9234	1476.1925	1479.7441	1493.0998	1876.7114	3040.5701	3057.928	3064.2522	3067.3603	3072.9436	3105.3747	3107.6968	3121.8737	3123.887	3811.8938
OC1CCC11CCC1=O	O[C@H]1CC[C@]21CCC2=O	
InChI=1S/C7H10O2/c8-5-1-3-7(5)4-2-6(7)9/h5,8H,1-4H2	InChI=1S/C7H10O2/c8-5-1-3-7(5)4-2-6(7)9/h5,8H,1-4H2/t5-,7+/m0/s1
