17
gdb 124107	3.35262	0.97878	0.76481	2.828	89.94	-0.2154	-0.0075	0.2079	1475.9345	0.13613	-380.884268	-380.874795	-380.873851	-380.921049	32.451	
C	-0.1260828444	 1.4787350501	-0.0188760145	-0.509426
C	-0.0352793168	 0.0275434117	-0.0157984935	 0.158276
C	 0.0431279453	-1.1773581029	-0.0130567674	-0.036908
C	 0.1336689324	-2.5839188989	-0.0095873326	 0.187616
C	 1.2343994013	-3.4378950889	-0.0095915138	 0.076265
C	 2.6787958798	-3.0488772498	-0.0118709044	-0.524393
C	 0.6641619207	-4.7286661129	-0.0058024001	-0.079773
N	-0.6674595581	-4.6995454062	-0.0036243587	-0.21371
N	-0.9685452578	-3.3947850993	-0.0057580097	-0.295587
H	 0.87111159	 1.9319965715	-0.0208949745	 0.156149
H	-0.6583497855	 1.8445682096	-0.9041955322	 0.153169
H	-0.6564527749	 1.8483604471	 0.8660084956	 0.15319
H	 3.1975583834	-3.41232734	 0.8824534638	 0.130954
H	 3.20666701	-3.4594946338	-0.8798369395	 0.130692
H	 2.78514106	-1.9613334289	-0.039807843	 0.132462
H	 1.1763289955	-5.6804391466	-0.0049303178	 0.108078
H	-1.9312812909	-3.1026919518	-0.0055405475	 0.272944
17.464	41.5583	84.0364	108.7084	246.9552	253.7941	291.9202	348.4318	465.142	481.2438	505.2724	539.7165	682.7593	690.7823	718.2611	879.2268	949.5535	989.8334	1003.5763	1050.559	1051.2848	1064.9585	1150.1831	1209.8382	1249.0087	1292.8119	1381.0252	1412.0417	1417.4914	1438.799	1473.5115	1476.7944	1487.1196	1492.8887	1506.4739	1610.0405	2353.2963	3025.8453	3030.0426	3079.7921	3084.4963	3091.777	3115.411	3238.4388	3671.9041
CC#CC1=C(C)C=NN1	CC#Cc1c(C)cn[nH]1	
InChI=1S/C7H8N2/c1-3-4-7-6(2)5-8-9-7/h5H,1-2H3,(H,8,9)	InChI=1S/C7H8N2/c1-3-4-7-6(2)5-8-9-7/h5H,1-2H3,(H,8,9)
