18
gdb 126385	3.41901	1.13571	0.90777	2.2115	77.68	-0.2039	0.0114	0.2153	1318.9938	0.147268	-435.291217	-435.281815	-435.28087	-435.326544	32.891	
C	 0.4374380616	 0.7166421672	-0.8208046283	-0.382051
C	-0.2932555853	 0.4378368406	 0.5039112776	-0.293682
C	-1.6401167158	-0.1573010173	 0.3110064526	 0.408486
N	-2.7757582461	 0.3314556323	 0.6539394429	-0.290529
N	-3.6972124231	-0.6120271118	 0.2421699118	-0.049466
C	-5.1120804923	-0.4337616301	 0.4443678228	-0.325312
C	-3.0908612502	-1.6822739876	-0.3636961	 0.444288
N	-3.6388697489	-2.7125855327	-0.8556181115	-0.616014
O	-1.7343131736	-1.3754796956	-0.3123371837	-0.237288
H	 1.430646975	 1.1293695207	-0.6249513938	 0.123801
H	 0.5570589584	-0.2015111512	-1.4018416877	 0.138149
H	-0.1183411393	 1.4354123133	-1.4297724134	 0.131872
H	 0.3085644393	-0.24457632	 1.1170793416	 0.128782
H	-0.4290633175	 1.3585312051	 1.0769227648	 0.138592
H	-5.3419708081	-0.33100317	 1.5094897288	 0.138835
H	-5.473961232	 0.4533858314	-0.0852905979	 0.137928
H	-5.604967956	-1.3221386454	 0.0475495866	 0.17593
H	-2.9500631761	-3.3512419189	-1.2405190632	 0.22768
49.7781	61.3213	99.7518	150.0306	192.6006	228.3112	280.2249	317.097	391.1773	532.8738	605.2976	676.3145	681.5996	705.7544	731.6548	795.2982	832.2002	956.9751	981.1866	1004.578	1039.9365	1081.0584	1111.1623	1159.7582	1170.2088	1274.6885	1280.4069	1331.2151	1380.2244	1412.183	1429.37	1451.5483	1472.0436	1484.1553	1497.0114	1507.9179	1515.8925	1692.4982	1791.4358	3035.368	3037.2612	3048.1815	3096.0764	3103.4243	3122.1853	3130.0644	3156.8664	3557.1808
CCC1=NN(C)C(=N)O1	CCC1=NN(C)[C@H]([NH])O1	
InChI=1S/C5H9N3O/c1-3-4-7-8(2)5(6)9-4/h6H,3H2,1-2H3	InChI=1S/C5H10N3O/c1-3-4-7-8(2)5(6)9-4/h5-6H,3H2,1-2H3/t5-/m0/s1
