18
gdb 24114	4.9364	0.93793	0.83866	2.0797	77.83	-0.2353	0.0063	0.2416	1371.9922	0.149322	-401.968924	-401.961005	-401.960061	-402.002647	29.347	
C	-0.0391629039	 1.4832828674	-0.3243708809	-0.35035
C	-0.1168676746	-0.0283679361	-0.1710434243	 0.037812
C	-0.1780860009	-0.6496764534	 1.1997317659	-0.246824
C	-1.3933943414	-0.6725469808	 0.3050571369	-0.279486
C	 1.3443286063	 2.0252374346	-0.2270459844	 0.348663
C	 2.2053799607	 2.621380588	-1.0887331171	-0.19735
N	 3.4000757118	 2.9123969402	-0.4371931764	-0.256894
C	 3.2066990923	 2.4853408417	 0.7656267616	 0.069796
O	 1.9901940509	 1.9334492112	 0.9828875892	-0.174491
H	-0.4461789634	 1.7845668712	-1.2962792365	 0.119927
H	-0.6723944011	 1.9537604633	 0.4396830666	 0.115122
H	 0.4494948418	-0.5750479653	-0.9199794175	 0.089793
H	 0.3566697023	-1.577295941	 1.3698033201	 0.113764
H	-0.1884423249	 0.018175024	 2.0543456506	 0.117184
H	-2.2236467344	-0.0219751031	 0.5609254017	 0.111105
H	-1.6917560973	-1.6150046473	-0.1402242486	 0.114033
H	 2.0529858726	 2.8645601355	-2.1284642443	 0.12133
H	 3.8825639732	 2.5144079701	 1.6059155575	 0.146866
46.7649	72.9877	112.9909	285.1609	294.3783	339.4494	409.9062	653.7738	670.091	742.575	772.8271	805.1421	833.5569	842.2596	855.3155	895.9394	940.4677	950.5216	965.8163	1008.0435	1059.6345	1079.1301	1117.9651	1131.4328	1135.2016	1142.4938	1197.4143	1220.7303	1230.7189	1245.5078	1280.8596	1328.0978	1359.8283	1408.4798	1464.4893	1473.6788	1507.3737	1551.9297	1636.9498	3018.8653	3069.2957	3130.689	3137.2492	3146.0482	3209.6666	3225.2387	3262.385	3275.3367
C(C1CC1)C1=CN=CO1	C(C1CC1)c1cnco1	
InChI=1S/C7H9NO/c1-2-6(1)3-7-4-8-5-9-7/h4-6H,1-3H2	InChI=1S/C7H9NO/c1-2-6(1)3-7-4-8-5-9-7/h4-6H,1-3H2
