18
gdb 9780	2.99314	1.75622	1.34866	1.725	72.86	-0.2537	0.0509	0.3046	979.2953	0.150571	-347.754791	-347.745768	-347.744824	-347.788285	33.346	
C	-0.4022743611	 1.5726398681	-0.43567272	-0.390892
C	-0.0531218528	 0.1049291649	-0.097159275	-0.238503
C	-1.2707191407	-0.6359565386	 0.2270477652	 0.333773
C	-2.2864552874	-1.2119317145	 0.513167406	-0.460576
C	 0.7687385286	-0.5334931288	-1.2332304183	 0.416052
C	 2.2011235269	-0.0502240928	-1.3390913436	-0.464735
C	 0.4217131264	-1.8510146912	-1.784398306	-0.2276
O	 0.0751059388	-0.6461393898	-2.479661985	-0.273002
H	 0.5023908211	 2.1713919799	-0.5698343547	 0.116209
H	-0.9866812619	 1.6084758851	-1.3579151473	 0.147204
H	-0.9913475074	 2.0178103726	 0.369213157	 0.126335
H	 0.5871499605	 0.1000363609	 0.7962176208	 0.10559
H	-3.1807884594	-1.7264676939	 0.7643605199	 0.196068
H	 2.7677840913	-0.3142636494	-0.439600712	 0.121721
H	 2.6873273513	-0.5085932408	-2.2031857777	 0.129711
H	 2.2517251407	 1.0357493343	-1.4627887533	 0.129163
H	 1.2016822142	-2.4494180577	-2.2546321663	 0.104359
H	-0.4181265189	-2.4054548083	-1.3748081197	 0.129124
43.0435	156.86	173.8539	206.5223	220.7075	269.5475	333.7314	365.1848	383.563	463.9233	544.7796	569.829	621.809	641.4167	714.8598	815.8183	862.5443	917.904	930.868	996.5884	1035.3605	1063.6623	1104.5066	1136.819	1142.2701	1172.6329	1224.9065	1307.6879	1342.4373	1394.497	1400.4568	1417.4562	1480.9288	1494.1687	1497.1119	1503.4863	1526.7127	2234.3813	3009.3352	3040.1371	3053.1964	3087.5986	3104.4708	3125.9596	3129.1397	3138.9405	3188.3728	3503.2293
CC(C#C)C1(C)CO1	C[C@@H](C#C)[C@@]1(C)CO1	
InChI=1S/C7H10O/c1-4-6(2)7(3)5-8-7/h1,6H,5H2,2-3H3	InChI=1S/C7H10O/c1-4-6(2)7(3)5-8-7/h1,6H,5H2,2-3H3/t6-,7+/m0/s1
