18
gdb 18875	3.08408	2.42668	2.05242	1.7347	69.31	-0.2494	0.0677	0.3171	762.2454	0.156748	-347.78611	-347.779664	-347.77872	-347.816275	26.6	
O	 0.242419844	 1.3766889002	 0.2218454163	-0.442242
C	 0.0122025844	 0.0045846235	-0.0098949484	 0.159373
C	-1.3974681422	-0.5701234765	-0.004354046	-0.128741
C	-2.0878390318	-0.4092398382	-1.3525655004	-0.030737
C	-1.6331911186	 0.6794472192	-2.3244856098	-0.252438
C	-0.1196323508	 0.3897456621	-2.5402960373	-0.213035
C	 0.2375507203	-0.6153860142	-1.4364577609	-0.091721
C	-1.0371763825	-1.4651805274	-1.1915072198	-0.078671
H	-0.4415438338	 1.8778890491	-0.2316932937	 0.282564
H	 0.634047784	-0.5216638168	 0.7197539909	 0.088452
H	-1.9722288568	-0.8209722439	 0.8806414412	 0.080596
H	-3.1295735704	-0.7121217172	-1.3554904334	 0.083505
H	-2.192164829	 0.6106766617	-3.2631794549	 0.101739
H	-1.8171982188	 1.689062331	-1.9358680096	 0.087807
H	 0.0510462865	-0.0532166336	-3.5267349554	 0.09812
H	 0.4966322395	 1.2912071663	-2.4727665641	 0.104172
H	 1.188881631	-1.1269996788	-1.5819190657	 0.064789
H	-1.1667728351	-2.5314182165	-1.3130280789	 0.086468
174.0967	227.7222	269.3262	327.1897	478.3127	556.3032	603.5447	683.8201	758.9336	785.4005	798.0719	823.3677	846.3118	896.0722	901.3545	962.3532	980.6528	1002.4977	1041.3014	1043.9727	1054.913	1066.7725	1099.5522	1133.4205	1147.4353	1212.2763	1222.7687	1235.6033	1262.5139	1273.9236	1297.1279	1308.4792	1333.9292	1354.5935	1404.6567	1434.2315	1489.3244	1512.9605	3020.3945	3047.3299	3066.955	3071.8635	3095.4532	3112.7175	3163.0391	3173.1385	3212.8594	3835.369
OC1C2C3CCC1C23	O[C@H]1[C@H]2[C@H]3CC[C@@H]1[C@@H]23	
InChI=1S/C7H10O/c8-7-4-2-1-3-5(4)6(3)7/h3-8H,1-2H2	InChI=1S/C7H10O/c8-7-4-2-1-3-5(4)6(3)7/h3-8H,1-2H2/t3-,4+,5-,6-,7+/m0/s1
