17
gdb 72318	2.33702	1.96882	1.55963	2.8965	75.04	-0.2158	-0.0338	0.182	924.8737	0.134684	-421.710422	-421.702657	-421.701713	-421.741922	31.289	
O	-0.0755419014	 1.3017554942	-0.078984996	-0.484265
C	-0.0599638359	-0.0877328257	-0.1476173206	 0.296615
C	 0.857400623	-0.8105767816	-1.1574012709	-0.332596
C	 0.3278384679	-2.2240134788	-0.9625750137	-0.098333
C	-0.8422854712	-2.188089084	-0.2895783988	 0.009813
C	-0.7860245706	-2.3703293699	 1.2374580201	-0.273926
C	-0.6942522529	-0.8060432474	 1.1878075894	-0.210408
C	-1.3676019993	-0.7503937898	-0.1592818228	 0.356761
O	-2.5903925215	-0.2983162449	-0.601688854	-0.474016
H	 0.7117160168	 1.6039150079	 0.3863706782	 0.290798
H	 0.7600905078	-0.3411377015	-2.1460527064	 0.119006
H	 1.9246906953	-0.8006542798	-0.9002295302	 0.104218
H	 1.0251233019	-3.0504737144	-0.8536464829	 0.097535
H	-1.7156446158	-2.6670255002	 1.7360223212	 0.11369
H	 0.0555027578	-2.9506108432	 1.6264352558	 0.098892
H	-0.8516404709	-0.1406106797	 2.0334002311	 0.09127
H	-2.5511600312	 0.6659765587	-0.6009154395	 0.294947
175.5474	217.1717	265.7677	276.651	292.3503	336.6102	375.5723	451.0359	529.2445	543.7571	599.7823	639.1159	726.9845	788.9864	819.4699	853.7223	899.8802	929.2325	960.8856	998.1326	1016.4229	1024.4779	1059.411	1083.1902	1114.73	1145.6353	1170.7471	1207.795	1231.3808	1274.909	1290.662	1308.0626	1389.573	1467.3223	1494.0841	1504.2059	1590.9049	3006.6948	3031.6271	3044.1207	3094.5231	3139.9675	3158.5013	3789.2602	3801.3316
OC12CC=C3CC1C23O	O[C@@]12C[CH][C]3C[C@@H]1[C@@]23O	
InChI=1S/C7H8O2/c8-6-2-1-4-3-5(6)7(4,6)9/h1,5,8-9H,2-3H2	InChI=1S/C7H8O2/c8-6-2-1-4-3-5(6)7(4,6)9/h1,5,8-9H,2-3H2/t5-,6-,7+/m0/s1
