25
gdb 58233	2.11265	1.28919	1.13169	1.4682	88.34	-0.2539	0.0635	0.3174	1296.5661	0.226878	-389.484981	-389.474151	-389.473207	-389.519921	41.66	
C	-0.0828489069	 1.6035285433	-0.1972710406	-0.41285
C	-0.0245342735	 0.0801424113	-0.0810230611	 0.128455
O	 0.8720513597	-0.3174673872	 0.9582797021	-0.430086
C	-1.3865113729	-0.60402194	 0.1692746157	-0.046643
C	-1.2107134029	-2.1315160761	 0.2047643001	-0.404916
C	-2.1801799139	-0.0922461314	 1.378419536	 0.401795
C	-1.5594772498	-0.2604731373	 2.7567658938	-0.459131
C	-3.0770510008	 1.1092762573	 1.1717932641	-0.311139
C	-3.6813983355	-0.26739499	 1.2964104521	-0.313932
H	 0.9116481574	 2.0026672588	-0.4314176966	 0.098078
H	-0.7563040566	 1.9132192176	-1.0031167541	 0.113102
H	-0.4237802959	 2.059938043	 0.7347700305	 0.135017
H	 0.3429999214	-0.3198455893	-1.0422493776	 0.058446
H	 1.7213621657	 0.1025379141	 0.7914058897	 0.280072
H	-1.989262429	-0.3637571584	-0.7180881296	 0.062486
H	-0.5487012211	-2.4340329414	 1.0188471106	 0.136395
H	-2.1756877272	-2.6295040975	 0.3369066439	 0.108864
H	-0.7682141998	-2.4926442518	-0.7299906512	 0.102065
H	-0.6099927982	 0.2720398567	 2.8395439021	 0.126601
H	-2.2404739659	 0.1144165088	 3.5280432409	 0.09729
H	-1.3597451874	-1.3143071997	 2.9781584794	 0.113869
H	-3.2024350493	 1.80300311	 1.9969909731	 0.104772
H	-3.096303209	 1.5812986253	 0.1953324186	 0.103027
H	-4.1000683162	-0.7203560844	 0.4032962418	 0.103664
H	-4.2165555024	-0.5132130115	 2.2076107364	 0.104696
71.019	117.1484	184.5834	220.1927	239.6957	246.7626	260.2788	269.3492	271.6969	310.4779	325.9167	374.4739	384.8019	466.1336	531.763	598.1655	710.6714	787.0778	809.0958	869.9216	896.2996	936.3219	943.3611	955.8488	996.9125	1022.9327	1036.8745	1052.5727	1065.0183	1082.5875	1109.9734	1121.7374	1150.4946	1179.9789	1190.6186	1228.8255	1294.0206	1319.6238	1339.0201	1384.0925	1394.8814	1403.7856	1408.0193	1419.4384	1430.4977	1470.2019	1486.7161	1490.895	1494.3124	1497.4014	1502.9991	1509.9511	1513.0452	2939.4256	3002.7509	3027.8523	3035.5807	3039.768	3089.9249	3093.7768	3101.7543	3123.2429	3127.5689	3128.8355	3129.8084	3132.2784	3200.0737	3214.7522	3821.9243
CC(O)C(C)C1(C)CC1	C[C@@H](O)[C@@H](C)C1(C)CC1	
InChI=1S/C8H16O/c1-6(7(2)9)8(3)4-5-8/h6-7,9H,4-5H2,1-3H3	InChI=1S/C8H16O/c1-6(7(2)9)8(3)4-5-8/h6-7,9H,4-5H2,1-3H3/t6-,7-/m1/s1
