20
gdb 95637	2.25696	1.51991	1.14292	1.4308	75.31	-0.2114	-0.023	0.1883	1148.1792	0.171825	-440.301116	-440.292055	-440.291111	-440.334727	34.33	
C	-0.0150170063	 1.5807998366	 0.0211416191	-0.406642
C	 0.0337952592	 0.0498702983	-0.0030226674	-0.002829
C	 0.7048794058	-0.5036239526	-1.2774166778	-0.167398
N	 0.769373412	-1.9656135246	-1.3314733628	-0.29465
C	 1.45777619	-2.5430162304	-0.1691713318	-0.254504
C	 0.8532959488	-2.0528175432	 1.1436206215	 0.352298
O	 0.4839842141	-2.784681842	 2.0337601298	-0.317773
C	 0.738202087	-0.5238528214	 1.2388139251	 0.020155
O	 2.0596693254	 0.0225136938	 1.2834016115	-0.434747
H	 0.9941311699	 1.999919066	 0.0324054889	 0.13789
H	-0.5392438075	 1.9655944191	-0.8595603199	 0.112114
H	-0.5405138272	 1.945166773	 0.9100019994	 0.113284
H	-0.995268232	-0.33824781	 0.0224227709	 0.075678
H	 0.1667551806	-0.1501332181	-2.1632998848	 0.101214
H	 1.728241381	-0.1158656154	-1.344852076	 0.123301
H	-0.1730234812	-2.3437195923	-1.3774026509	 0.219622
H	 1.4077106689	-3.6337966089	-0.2027145064	 0.120519
H	 2.5118257532	-2.2416842699	-0.2101183007	 0.129294
H	 0.1791171497	-0.2760601958	 2.1513990368	 0.077408
H	 2.4604116286	-0.237752292	 2.1191599855	 0.295767
72.8	123.3624	204.2053	217.4865	256.3344	291.7169	297.2791	331.7399	407.3409	433.3755	482.9256	534.4379	624.693	681.6509	785.9132	815.6952	858.7615	930.9014	937.5852	967.4006	992.794	1018.3174	1093.0014	1125.2238	1130.0984	1155.2827	1173.4393	1244.2651	1263.9194	1288.6794	1321.402	1335.5172	1344.2472	1372.6723	1378.3637	1402.1846	1417.699	1456.7533	1484.4146	1491.0504	1494.0231	1504.8255	1814.1818	2998.2487	3015.8265	3035.0313	3036.0899	3040.2741	3083.1653	3100.7116	3112.8758	3125.9429	3498.0188	3818.2875
CC1CNCC(=O)C1O	C[C@H]1CNCC(=O)[C@H]1O	
InChI=1S/C6H11NO2/c1-4-2-7-3-5(8)6(4)9/h4,6-7,9H,2-3H2,1H3	InChI=1S/C6H11NO2/c1-4-2-7-3-5(8)6(4)9/h4,6-7,9H,2-3H2,1H3/t4-,6-/m0/s1
