23
gdb 71623	2.56296	1.57657	1.50813	0.251	89.14	-0.2749	0.0857	0.3606	1065.827	0.209032	-351.136966	-351.12923	-351.128286	-351.168594	32.314	
C	-0.0026586599	 1.4839689815	-0.0060672305	-0.521034
C	 0.0243821394	-0.0218801135	-0.0367755961	 0.341678
C	 0.7050113606	-0.9352526321	-1.0941363859	-0.275083
C	 0.0593032704	-1.9091964486	-0.0768684999	-0.081049
C	 0.613208645	-0.9807464321	 1.0557540146	-0.002608
C	-0.0531287912	-1.0044845655	 2.4309625468	-0.247495
C	-1.4816331567	-1.5577092613	 2.3303112619	-0.192915
C	-2.1762064869	-1.0149355616	 1.0734203231	-0.247492
C	-1.2076606251	-0.9897040417	-0.1085495285	-0.002612
H	 1.0115038206	 1.8957470168	 0.0479507581	 0.116405
H	-0.4805557389	 1.8884037165	-0.9055406472	 0.116405
H	-0.5587543992	 1.8580259672	 0.8612520494	 0.116273
H	 0.2749930489	-0.9210928843	-2.1006978253	 0.080714
H	 1.7989905489	-0.9135899921	-1.1261663941	 0.080717
H	 0.0856022157	-3.0000081606	-0.1096091862	 0.061679
H	 1.7065316247	-0.9510498865	 1.1275659802	 0.051295
H	 0.5372377673	-1.6103755337	 3.1279267459	 0.091566
H	-0.0607106272	 0.0136913118	 2.8448702951	 0.09268
H	-1.42528525	-2.6502974997	 2.2505992209	 0.09879
H	-2.0604951005	-1.3405200695	 3.2339276661	 0.086545
H	-3.0522986248	-1.6280502621	 0.8326933505	 0.091566
H	-2.5558479125	 0.0014068952	 1.2494281613	 0.092681
H	-1.7317682487	-0.9679592542	-1.0709588601	 0.051294
172.2778	182.9621	194.7089	254.6135	345.1758	395.4481	435.8855	475.3318	565.4237	623.642	680.5755	756.9226	780.879	800.3247	836.6129	894.9749	897.5791	903.3393	949.2529	974.7387	1018.7882	1019.9268	1041.3808	1049.4861	1058.4372	1111.66	1123.4339	1125.2855	1165.0736	1189.3515	1199.3244	1220.1042	1221.288	1224.3166	1253.3943	1282.4568	1327.4426	1345.7785	1360.5704	1363.6581	1392.6715	1407.2548	1424.0842	1485.9577	1486.1973	1491.3059	1495.4425	1506.5019	1521.0822	3008.2643	3008.2715	3021.7132	3025.197	3032.8146	3033.0151	3039.8733	3054.2806	3057.922	3074.5117	3086.7456	3089.0917	3092.1465	3098.2442
CC12CC3C1CCCC23	C[C@@]12C[C@H]3[C@@H]1CCC[C@@H]23	
InChI=1S/C9H14/c1-9-5-6-7(9)3-2-4-8(6)9/h6-8H,2-5H2,1H3	InChI=1S/C9H14/c1-9-5-6-7(9)3-2-4-8(6)9/h6-8H,2-5H2,1H3/t6-,7-,8+,9+
