21
gdb 73145	2.5445	1.56303	1.34936	1.6611	81.72	-0.2527	0.0743	0.327	1075.6159	0.181907	-387.049963	-387.041445	-387.040501	-387.083167	33.319	
C	 0.2490805852	 1.6155250686	 0.0416327457	-0.485789
C	 0.0429204474	 0.1183384686	 0.0792722421	 0.256143
C	-1.4064089366	-0.4435887051	-0.0106689662	-0.276421
C	-1.1317399412	-1.3771554802	 1.2063795276	-0.218263
C	 0.3059686689	-0.8080316331	 1.3378504409	-0.071356
C	 1.394269586	-1.5851296363	 0.5487096151	-0.330022
C	 1.0616614158	-0.7445750293	-0.6888501127	 0.418448
C	 1.1195803474	-1.0701223474	-2.1151752285	-0.270576
O	 2.0720322313	-0.181616269	-1.5122616891	-0.272264
H	 1.2894183591	 1.8824085051	 0.2516698296	 0.12514
H	 0.003098132	 2.0191669592	-0.9476862455	 0.120001
H	-0.3909863055	 2.1171458377	 0.775640565	 0.109133
H	-2.1639378276	 0.3174572988	 0.1965947507	 0.099111
H	-1.6668093135	-0.9330995757	-0.9536919435	 0.093608
H	-1.7696085945	-1.1679577511	 2.0682549499	 0.101933
H	-1.1837526928	-2.4509893484	 1.0031375768	 0.096157
H	 0.5972014831	-0.4106282051	 2.3107926233	 0.065734
H	 2.4095007545	-1.3793504	 0.9000488679	 0.116079
H	 1.2635501282	-2.6685673631	 0.4678286431	 0.099899
H	 1.5187684648	-2.0313491677	-2.4379253828	 0.111957
H	 0.4219324279	-0.6022089265	-2.8096690893	 0.111349
45.3041	172.9091	195.6942	224.4047	250.2263	320.1387	359.1909	414.6027	453.9554	539.3711	631.4643	696.4601	753.3779	808.5211	835.7835	861.5676	875.4124	899.8862	929.7705	946.4564	959.5127	1016.9368	1035.9714	1094.494	1117.0387	1127.0001	1141.1667	1154.118	1161.4245	1192.8764	1215.615	1227.2715	1239.9859	1256.4868	1280.6775	1307.9763	1323.7201	1410.3282	1424.0072	1468.3659	1475.3712	1488.3448	1488.535	1495.8896	1530.3042	3025.3671	3046.7854	3047.6829	3055.0595	3073.5821	3087.4388	3088.8271	3095.9914	3102.6363	3104.8841	3113.2955	3158.5744
CC12CCC1CC21CO1	C[C@]12CC[C@H]1C[C@]12CO1	
InChI=1S/C8H12O/c1-7-3-2-6(7)4-8(7)5-9-8/h6H,2-5H2,1H3	InChI=1S/C8H12O/c1-7-3-2-6(7)4-8(7)5-9-8/h6H,2-5H2,1H3/t6-,7-,8+/m0/s1
