15
gdb 43488	2.36252	1.98926	1.20136	3.5302	66.44	-0.2502	-0.0191	0.2311	985.3128	0.114975	-453.966442	-453.959408	-453.958464	-453.998302	26.712	
N	 0.1042189151	 1.1220134857	 0.5109800622	-0.52033
C	 0.0491768807	-0.0487205934	 0.0596706553	 0.418092
O	 1.1592086881	-0.7676150625	-0.367669506	-0.221557
C	 0.8251455631	-2.0445090725	-0.7935646596	 0.466135
O	 1.6327950185	-2.7817407621	-1.2631444944	-0.316921
C	-0.6555982054	-2.2590280614	-0.5147602185	-0.151365
N	-0.8703592256	-2.7249750601	 0.879039963	-0.312716
C	-1.7309092701	-1.5532301157	 1.1777848528	-0.168975
C	-1.2025121152	-0.8759571676	-0.1149665956	-0.134832
H	 1.0654944428	 1.4658368875	 0.5358765815	 0.238596
H	-1.1474336391	-2.8236106864	-1.310202473	 0.104263
H	-1.2965463878	-3.6384095992	 0.9723980935	 0.235939
H	-2.807807578	-1.7524695046	 1.1159629646	 0.108567
H	-1.5100005418	-1.0519081494	 2.1237211748	 0.132983
H	-1.9298956952	-0.3685351383	-0.7454453206	 0.12212
90.9859	136.533	243.8882	256.2773	376.0331	479.4207	610.4654	625.4011	659.9569	667.1377	739.6569	815.8003	855.4361	910.7152	916.1909	936.2709	975.894	1010.3214	1026.567	1065.801	1092.522	1141.1355	1154.8675	1194.3906	1231.0442	1277.8494	1299.6358	1327.3172	1345.6571	1386.4285	1522.4463	1789.8568	1919.1852	3025.2416	3086.216	3094.5049	3139.3944	3481.9894	3559.9269
N=C1OC(=O)C2NCC12	[NH][C]1OC(=O)[C@H]2NC[C@@H]12	
InChI=1S/C5H6N2O2/c6-4-2-1-7-3(2)5(8)9-4/h2-3,6-7H,1H2	InChI=1S/C5H6N2O2/c6-4-2-1-7-3(2)5(8)9-4/h2-3,6-7H,1H2/t2-,3+/m1/s1
