19
gdb 97901	5.29212	0.57539	0.54006	1.1565	88.26	-0.2433	0.0286	0.2718	2054.2653	0.15545	-385.827867	-385.816857	-385.815913	-385.866892	38.202	
C	-0.599041145	 1.2054816171	-0.233136817	-0.364033
C	 0.4967557593	 0.2125100521	 0.1953952172	-0.314207
C	 1.1843143587	-0.403917754	-0.9344896089	 0.119799
C	 1.7358947591	-0.8958426257	-1.8853622887	 0.025563
C	 2.4027119176	-1.5172582575	-3.0210533251	-0.372351
C	 1.6468880884	-2.7653928834	-3.555185497	-0.046861
O	 0.3226838079	-2.4594311158	-3.9607909664	-0.405526
C	 2.4150215674	-3.4002677973	-4.6314344412	 0.299661
C	 3.0431831305	-3.8742458248	-5.5403916406	-0.445151
H	-0.1744571075	 2.0199185031	-0.8264736608	 0.125748
H	-1.3578812556	 0.7058333464	-0.8411517471	 0.131443
H	-1.0881932923	 1.6372569947	 0.6452521626	 0.112425
H	 1.2288025536	 0.7263539199	 0.8319489471	 0.126598
H	 0.0539033699	-0.5723117722	 0.8221447636	 0.128872
H	 2.5084010073	-0.8025489387	-3.8481760494	 0.124589
H	 3.4211172337	-1.8228323526	-2.7507120688	 0.137731
H	 1.5301729796	-3.4712193531	-2.7254756414	 0.129432
H	 0.377398683	-1.9441833076	-4.7736346456	 0.285189
H	 3.5919034745	-4.3162970806	-6.3352658424	 0.201078
6.2273	44.6132	74.4583	132.5514	164.6167	202.6193	224.0477	289.8821	297.1573	322.6096	381.2829	455.0625	526.6466	537.0074	570.5692	643.0605	673.1886	750.9839	785.1927	853.2265	943.1857	965.269	1030.8751	1079.1288	1080.8699	1104.9133	1168.0437	1192.7506	1273.5533	1286.5611	1313.9276	1349.8389	1357.0998	1408.1193	1421.7333	1463.82	1474.783	1494.6422	1506.0717	2231.7259	2369.8302	3017.003	3018.5926	3043.7574	3045.2775	3049.3528	3063.8294	3116.7307	3124.1438	3502.3678	3801.7529
CCC#CCC(O)C#C	CCC#CC[C@@H](O)C#C	
InChI=1S/C8H10O/c1-3-5-6-7-8(9)4-2/h2,8-9H,3,7H2,1H3	InChI=1S/C8H10O/c1-3-5-6-7-8(9)4-2/h2,8-9H,3,7H2,1H3/t8-/m0/s1
