22
gdb 112838	3.52113	1.08767	0.94236	2.0268	81.48	-0.228	0.068	0.296	1328.2122	0.194963	-404.332282	-404.323213	-404.322268	-404.365992	34.968	
C	 0.0655343754	 1.5434680915	 0.0295563603	-0.379314
C	 0.0114458101	 0.0149507992	-0.0460307655	-0.179269
C	-1.4060077821	-0.5490224972	 0.0440384015	 0.067468
C	-1.509510304	-2.0816760713	-0.1144484212	-0.311431
C	-2.7811992726	-2.4594625292	 0.6785292477	 0.114273
O	-2.7263113216	-3.7264380844	 1.3173353432	-0.434928
C	-2.8939621831	-1.3563147307	 1.7183381626	-0.018581
C	-1.6602204022	-1.019197258	 2.4703021977	-0.250183
N	-2.077687999	-0.1964431467	 1.3239982164	-0.102672
H	 1.0974587002	 1.9045826511	-0.0195628773	 0.106093
H	-0.4871624167	 1.9983046748	-0.8000652357	 0.110974
H	-0.3820744099	 1.9023441123	 0.9599004294	 0.136509
H	 0.4587918844	-0.3289348118	-0.9873178957	 0.09388
H	 0.6187645884	-0.4211405971	 0.7579530801	 0.094328
H	-2.0169781875	-0.0718804488	-0.7345299108	 0.076386
H	-1.5568654386	-2.3859862646	-1.1637050938	 0.095586
H	-0.6512024861	-2.5922224312	 0.3351451522	 0.108922
H	-3.663081961	-2.407388889	 0.0210343282	 0.068058
H	-2.7609245683	-4.4050173025	 0.6359655108	 0.283146
H	-3.871314232	-1.1525499936	 2.1454247952	 0.087742
H	-1.7382810705	-0.5196044493	 3.430995324	 0.114638
H	-0.8039023933	-1.6805723433	 2.3772717008	 0.118376
77.1676	116.6384	175.6516	188.5198	243.2024	267.203	302.4993	379.9528	421.7366	497.399	550.2024	619.4464	621.1513	725.4119	796.5963	836.6601	879.4683	892.8738	957.5093	971.8624	983.4315	1014.5885	1031.759	1074.8292	1088.8736	1098.6133	1115.2119	1133.6577	1150.6758	1176.31	1201.0331	1236.0546	1254.4171	1274.5628	1299.3354	1335.8197	1352.9617	1358.0524	1395.1124	1397.0826	1409.2227	1434.3839	1480.396	1489.2211	1494.4455	1507.9215	1519.6363	2975.0305	3005.4952	3020.0709	3035.8098	3049.8198	3053.4344	3096.9869	3099.4045	3119.1827	3122.4585	3152.3413	3201.3949	3818.7285
CCC1CC(O)C2CN12	CC[C@H]1C[C@@H](O)[C@H]2CN12	
InChI=1S/C7H13NO/c1-2-5-3-7(9)6-4-8(5)6/h5-7,9H,2-4H2,1H3	InChI=1S/C7H13NO/c1-2-5-3-7(9)6-4-8(5)6/h5-7,9H,2-4H2,1H3/t5-,6+,7+,8?/m0/s1
