15
gdb 67435	2.7242	1.51561	1.24992	3.8251	67.24	-0.2428	-0.0237	0.2191	1006.5554	0.111162	-457.692087	-457.684526	-457.683581	-457.724213	28.733	
O	-0.2280210955	 1.403129598	-0.0000397187	-0.436366
C	-0.0172488796	 0.0572221362	 0.0119718976	 0.25871
C	 0.0679062902	-1.028107914	-0.9858319502	-0.042458
O	 1.1910434534	-1.67174129	-0.4287259576	-0.274056
C	 0.9137285744	-0.9667895743	 0.8186765528	-0.014882
C	-0.3600265177	-1.6654896285	 1.3517075683	-0.289285
C	-1.0653975445	-1.0470061738	 0.1530364501	 0.175536
C	-2.4827593967	-1.0107439848	-0.2029924608	 0.040261
O	-3.3497724841	-1.6077661494	 0.393244854	-0.268357
H	 0.4955898691	 1.8278115123	-0.4770466816	 0.302881
H	-0.158239812	-1.1256864634	-2.0392091075	 0.132671
H	 1.8001747853	-0.773506552	 1.4178384802	 0.101193
H	-0.307883693	-2.7534688025	 1.432141312	 0.120282
H	-0.714247176	-1.2227606489	 2.2850516006	 0.125815
H	-2.7226176532	-0.3806107949	-1.0900294493	 0.068056
94.2921	159.2262	229.5196	257.2565	327.2029	362.2693	444.9185	500.3233	535.991	608.5827	661.1602	739.3494	822.256	833.7759	918.7826	926.0792	961.0676	993.5293	1042.7274	1055.8189	1064.5929	1120.1811	1133.1151	1162.1867	1218.148	1243.5917	1277.0733	1310.7413	1362.332	1432.5352	1473.1032	1500.7578	1795.5428	2864.259	3072.9093	3135.6142	3157.3489	3217.5604	3778.7145
OC12C3OC1CC23C=O	O[C@@]12[C@H]3O[C@@H]1C[C@@]23C=O	
InChI=1S/C6H6O3/c7-2-5-1-3-6(5,8)4(5)9-3/h2-4,8H,1H2	InChI=1S/C6H6O3/c7-2-5-1-3-6(5,8)4(5)9-3/h2-4,8H,1H2/t3-,4+,5+,6-/m1/s1
