18
gdb 78981	3.00726	1.76559	1.46057	0.234	73.17	-0.2328	0.0648	0.2976	944.0539	0.148537	-401.868267	-401.861057	-401.860112	-401.899478	29.388	
C	-0.1772211318	 1.5335269567	 0.0457150721	-0.529944
C	-0.0092845091	 0.0503077853	 0.0066331433	 0.405667
C	 0.752682628	-0.8070615255	-1.0676038407	-0.181191
C	-0.3780152492	-1.8146490623	-0.7927661307	-0.066564
C	-0.3808930831	-1.8545101545	 0.7042624806	-0.066583
C	 0.7486422183	-0.8631159403	 1.036623817	-0.181173
C	 1.8592297112	-1.1008378236	-0.0204467515	 0.158905
O	 2.5734959206	-2.3046036533	-0.0511752425	-0.446129
N	-1.2487080224	-0.8699301798	-0.0202577917	-0.200472
H	 0.7944208768	 2.0392272792	 0.0565137632	 0.124412
H	-0.7355600215	 1.881077628	-0.8302082673	 0.131582
H	-0.7314681193	 1.8353700559	 0.9409597233	 0.131474
H	 0.9605463158	-0.4915726618	-2.0878436392	 0.073869
H	-0.8000489968	-2.5776887961	-1.4354445886	 0.097523
H	-0.8053126491	-2.6506105089	 1.3038197288	 0.097525
H	 0.9525777916	-0.6023300627	 2.0729795813	 0.07386
H	 2.5996190611	-0.2946028539	 0.0024629574	 0.092676
H	 1.928889689	-3.0214731424	-0.0714009449	 0.284561
157.8436	210.2573	242.3783	276.0919	310.5262	379.941	545.0393	606.1773	633.4465	747.8367	770.3191	804.7068	809.8697	823.2983	838.0852	856.6783	897.9563	951.4792	971.2791	982.0169	1037.4465	1044.3594	1090.9824	1091.633	1115.7933	1135.0528	1154.269	1173.2209	1179.4698	1236.4392	1257.2387	1295.5066	1315.578	1346.7058	1352.689	1415.7544	1432.7064	1477.1528	1489.8234	3028.1825	3069.6444	3098.5994	3100.7164	3139.9441	3141.8693	3180.3744	3191.3686	3792.4601
CC12C3C4C(C1C3O)N24	C[C@@]12[C@@H]3[C@H]4[C@@H]([C@H]1[C@H]3O)N24	
InChI=1S/C7H9NO/c1-7-2-4-5(8(4)7)3(7)6(2)9/h2-6,9H,1H3	InChI=1S/C7H9NO/c1-7-2-4-5(8(4)7)3(7)6(2)9/h2-6,9H,1H3/t2-,3+,4+,5-,6+,7-,8?
