21
gdb 114085	3.42584	1.15927	1.04805	1.4926	78.72	-0.2449	0.0769	0.3218	1230.9141	0.183059	-424.207215	-424.198705	-424.197761	-424.240018	33.623	
C	-0.1443006434	 1.3130722508	 0.1179605754	-0.239059
O	 0.2251528506	-0.0317094085	-0.0755241379	-0.250629
C	 0.7781763962	-0.6396437905	 1.072223241	 0.161591
C	-0.2701528794	-1.0524487866	 2.1613843029	-0.317782
C	-0.044570033	-2.5794424687	 2.1298626931	 0.421255
O	-0.7466102438	-3.3724795842	 3.0353573912	-0.485806
C	 1.5004171592	-2.671824318	 2.1212197284	-0.265764
C	 1.3219488938	-2.0313898829	 0.7132050626	-0.058804
C	 0.0203962476	-2.8720820593	 0.5949811342	-0.288434
H	 0.7160167557	 1.9305565604	 0.4216718199	 0.103709
H	-0.526851851	 1.6862633954	-0.8352643713	 0.125971
H	-0.9304266543	 1.4251873518	 0.8802315005	 0.104214
H	 1.5629206153	 0.0099774705	 1.4893695336	 0.060607
H	-0.0694445151	-0.6299369928	 3.1500117568	 0.098701
H	-1.284693026	-0.772893237	 1.8573120298	 0.093497
H	-1.6834986775	-3.1607385934	 2.9625627877	 0.27721
H	 2.0548144435	-2.1184104748	 2.8854621059	 0.089049
H	 1.8506818923	-3.7043118846	 2.0667199426	 0.105297
H	 2.1038766442	-2.0672142497	-0.0427722026	 0.068826
H	 0.2198768079	-3.9266879328	 0.3956976851	 0.09833
H	-0.7749758831	-2.4915221453	-0.0494783692	 0.098021
109.3915	140.5761	193.0806	240.9911	255.1987	346.2857	358.9016	421.0736	459.212	479.7194	527.3097	620.7005	686.3771	818.3313	840.2002	847.9813	908.7773	938.7011	953.6022	985.8545	999.282	1010.8781	1037.5721	1088.7853	1105.0097	1130.3635	1143.3506	1157.1096	1186.1738	1191.8848	1216.9292	1234.9399	1236.6986	1244.8947	1281.8533	1317.4658	1334.8561	1378.8908	1398.897	1481.5342	1482.0815	1485.9007	1490.1276	1510.5769	1527.1907	2971.017	2981.4154	3018.2584	3043.7387	3053.5567	3070.2929	3096.2033	3112.1208	3124.1336	3134.7554	3137.8361	3804.7352
COC1CC2(O)CC1C2	CO[C@H]1C[C@]2(O)C[C@H]1C2	
InChI=1S/C7H12O2/c1-9-6-4-7(8)2-5(6)3-7/h5-6,8H,2-4H2,1H3	InChI=1S/C7H12O2/c1-9-6-4-7(8)2-5(6)3-7/h5-6,8H,2-4H2,1H3/t5-,6-,7-/m0/s1
