15
gdb 15551	3.57698	1.90675	1.39812	5.5928	65.37	-0.2453	0.0047	0.25	868.313	0.120667	-358.867797	-358.860481	-358.859537	-358.899505	26.869	
C	 0.0489796425	 1.5508185564	-0.171010759	-0.407477
C	-0.0285958927	 0.0396529154	 0.043163253	 0.008576
N	 0.5928529065	-0.718688748	-1.0593774162	-0.300553
C	 1.8406241884	-1.1126890458	-0.6201238651	 0.069884
N	 2.0837603382	-1.0454066923	 0.6332256896	-0.247115
C	 0.8383787583	-0.5162338028	 1.2346959083	-0.119599
C	 1.1096281273	 0.4679996132	 2.2853680027	 0.296141
N	 1.2898955145	 1.2499883393	 3.1162943828	-0.331909
H	 1.0876374029	 1.8821874212	-0.2652318215	 0.141171
H	-0.4910258583	 1.8328862253	-1.0810388313	 0.115499
H	-0.402798908	 2.0853700479	 0.6685256802	 0.150291
H	-1.0707337946	-0.2661490024	 0.1665885951	 0.103061
H	 0.5088034999	-0.345333301	-1.9948024013	 0.246978
H	 2.5572047678	-1.5030837627	-1.3370581627	 0.136819
H	 0.3068708773	-1.3533743936	 1.7068852256	 0.138231
76.8808	157.3435	213.2663	253.4262	340.5445	379.8725	487.3304	538.1163	566.9927	597.3569	744.2468	802.6361	855.1604	906.1477	969.6407	981.5183	1039.3854	1080.2093	1095.016	1112.5416	1151.8242	1261.4766	1278.9376	1328.4431	1342.2129	1379.3807	1413.4546	1435.9663	1491.127	1493.7529	1682.7927	2363.8367	3016.0895	3039.101	3070.2499	3110.4475	3128.3147	3188.8021	3592.8711
CC1NC=NC1C#N	C[C@H]1N[CH][N][C@H]1C#N	
InChI=1S/C5H7N3/c1-4-5(2-6)8-3-7-4/h3-5H,1H3,(H,7,8)	InChI=1S/C5H7N3/c1-4-5(2-6)8-3-7-4/h3-5H,1H3,(H,7,8)/t4-,5+/m1/s1
