15
gdb 20442	6.09242	1.46052	1.27879	3.8451	67.68	-0.2267	0.0235	0.2502	933.8267	0.122675	-358.836224	-358.829698	-358.828754	-358.867285	24.552	
C	-0.0094396356	 1.5245338759	-0.0063852346	-0.226033
N	 1.2389684876	 0.7719121821	 0.1689304624	-0.324103
C	-0.0258213359	 0.0302820182	 0.0133824127	-0.152356
C	-0.45354663	-0.7349920651	 1.2011763459	 0.428198
C	-1.5172661432	-1.5846407969	 1.4456404339	-0.331541
C	-1.3622881026	-1.9667656735	 2.7953102358	-0.001304
N	-0.2902070614	-1.4083068176	 3.352728315	-0.232741
N	 0.2384854931	-0.6636721003	 2.3644419111	-0.239002
H	-0.3410134181	 2.0694648647	 0.8723230835	 0.130767
H	-0.1942804641	 2.0224453548	-0.9545420345	 0.120243
H	 1.7758834071	 0.7522746518	-0.6926952575	 0.242238
H	-0.2204649058	-0.4563358923	-0.9390692638	 0.101249
H	-2.2891445443	-1.8772236513	 0.7522080606	 0.09762
H	-1.9860958422	-2.6268065276	 3.3803574121	 0.108051
H	 1.0999130354	-0.1580839829	 2.4956347874	 0.278715
83.6002	158.38	194.5767	385.5448	457.066	597.3422	648.9499	693.3923	718.6542	799.2934	859.5241	890.5915	893.7311	911.013	941.4676	972.3903	1035.7313	1060.6052	1096.5036	1117.9996	1128.3542	1169.2722	1227.8122	1248.7678	1279.968	1308.1774	1343.2253	1399.5343	1459.9541	1498.5461	1510.9811	1609.183	3112.1166	3139.5852	3203.684	3242.2636	3266.8987	3522.1504	3661.0773
C1NC1C1=CC=NN1	C1N[C@H]1c1ccn[nH]1	
InChI=1S/C5H7N3/c1-2-7-8-4(1)5-3-6-5/h1-2,5-6H,3H2,(H,7,8)	InChI=1S/C5H7N3/c1-2-7-8-4(1)5-3-6-5/h1-2,5-6H,3H2,(H,7,8)/t5-/m1/s1
