15
gdb 129637	2.25702	1.62381	0.98031	1.9594	64.6	-0.2133	0.0192	0.2325	1130.6808	0.113217	-491.076361	-491.06799	-491.067046	-491.109278	31.394	
N	-0.1307190469	 1.3117968775	-0.0345575162	-0.594023
C	-0.1465738791	-0.053543436	-0.0431824473	 0.442329
C	-1.2000735544	-0.9333102666	-0.0125837577	-0.053146
C	-2.653578822	-0.5895753786	-0.0152184474	-0.21109
O	-2.9472802117	 0.479682711	-0.9267670903	-0.417452
C	-0.5304671123	-2.184039522	-0.0010192953	 0.392643
O	-1.1504767678	-3.3762502867	 0.0241591982	-0.423839
N	 0.7786242308	-2.0957558697	-0.0172637073	-0.289243
O	 1.0261893322	-0.6944863006	-0.0511208505	-0.224977
H	 0.7139346158	 1.7392661874	-0.3849040256	 0.265109
H	-0.9905686502	 1.7139822252	-0.3849769252	 0.272684
H	-3.2511729901	-1.4831730612	-0.2380661865	 0.119525
H	-2.9868705996	-0.2126556975	 0.9584695223	 0.126481
H	-2.7183655792	 0.1663725469	-1.8090420628	 0.28453
H	-0.4663812654	-4.0592574492	 0.0186960216	 0.31047
94.5878	154.4336	185.6263	222.3941	298.0233	379.1996	386.8341	395.3507	443.6545	461.7208	545.5254	603.3351	633.4909	681.5466	730.4396	776.3964	797.6838	935.0555	959.267	1017.2078	1070.6431	1140.2327	1208.3217	1242.3704	1291.1916	1370.4283	1403.0817	1422.6611	1506.38	1556.1091	1568.3287	1634.7931	1701.5862	3020.1183	3060.2852	3550.6895	3668.2189	3779.3108	3799.8069
NC1=C(CO)C(O)=NO1	Nc1c(CO)c(O)no1	
InChI=1S/C4H6N2O3/c5-3-2(1-7)4(8)6-9-3/h7H,1,5H2,(H,6,8)	InChI=1S/C4H6N2O3/c5-3-2(1-7)4(8)6-9-3/h7H,1,5H2,(H,6,8)
