16
gdb 105585	1.95308	1.62515	1.29935	2.5853	71.88	-0.2629	0.0056	0.2685	1061.1419	0.123	-437.837323	-437.828587	-437.827643	-437.870742	32.3	
O	-0.0250004104	 1.4583251357	 0.176399125	-0.411277
C	 0.0059182875	 0.0804953237	-0.0767277725	-0.096371
C	-1.4218644664	-0.5208935425	-0.080637529	-0.091326
C	-1.5238016442	-2.0566561433	 0.1568043298	-0.125778
O	-2.0642038429	-1.8203384043	 1.4974837512	-0.251041
C	-2.0000986203	-0.4625867937	 1.3324939902	 0.437299
N	-2.229771502	 0.4923768475	 2.1122086764	-0.555834
C	-2.253815572	 0.0102446213	-1.1418134034	 0.315593
C	-2.9373807036	 0.4188373385	-2.0410456085	-0.444969
H	-0.5535929739	 1.5966770895	 0.976556888	 0.304035
H	 0.4701810866	-0.0615100972	-1.0574630773	 0.120487
H	 0.60451618	-0.4697636497	 0.6687965005	 0.089993
H	-2.2436862993	-2.5808225002	-0.4718921646	 0.139479
H	-0.5757631942	-2.5967674552	 0.2115771259	 0.128694
H	-2.5415221087	 0.1808344082	 3.0328936363	 0.237577
H	-3.5423285063	 0.8003079717	-2.8263183279	 0.20344
109.0936	123.8589	124.219	165.5204	231.1423	293.6795	382.1338	407.251	510.7133	518.2942	551.2614	636.6653	649.9028	653.7901	736.7279	773.3693	857.7645	906.6336	949.0735	957.8357	1018.5247	1053.9142	1100.0945	1146.8534	1160.6797	1209.6255	1232.0576	1280.3535	1366.9543	1387.7529	1455.1922	1506.7935	1507.8663	1814.1793	2243.1124	2961.2835	3073.4744	3081.9786	3147.4059	3485.773	3500.8898	3717.0769
OCC1(COC1=N)C#C	OC[C@]1(CO[C]1[NH])C#C	
InChI=1S/C6H7NO2/c1-2-6(3-8)4-9-5(6)7/h1,7-8H,3-4H2	InChI=1S/C6H7NO2/c1-2-6(3-8)4-9-5(6)7/h1,7-8H,3-4H2/t6-/m0/s1
