18
gdb 110790	2.52426	1.41728	1.19565	3.2807	71.11	-0.2295	-0.0236	0.2059	1093.3966	0.147808	-439.072777	-439.064555	-439.063611	-439.105918	31.194	
O	 0.1439893218	 1.2198439805	 0.9807106074	-0.408901
C	-0.0426076669	 0.2741573885	-0.0649439982	-0.103608
C	-1.3480873897	-0.4817353257	 0.0669102916	-0.038364
C	-1.5022655607	-1.9454910919	-0.1715464575	-0.055052
C	-0.2765984547	-2.8282812436	-0.2486339065	-0.355444
C	 0.4249460274	-2.6439152331	 1.1101537257	 0.380051
O	 1.49132664	-3.0998398596	 1.4230998614	-0.301925
C	-0.4932703934	-1.7863254339	 1.9938562639	-0.280475
N	-1.6544446557	-1.3749469189	 1.1989367489	-0.117098
H	-0.6486508221	 1.7640339526	 1.0361078929	 0.287607
H	-0.0206582384	 0.7606106381	-1.0529779729	 0.100532
H	 0.832419525	-0.378811878	-0.0195231345	 0.126007
H	-2.2110628403	 0.1352356969	-0.1893719045	 0.090902
H	-2.4191260767	-2.3041026396	-0.6303777725	 0.098471
H	-0.5552698999	-3.8828130723	-0.3548989732	 0.140926
H	 0.4151971881	-2.6000582167	-1.0643122442	 0.140806
H	-0.8333120029	-2.3921914193	 2.8420697617	 0.134644
H	 0.0523764692	-0.9271102241	 2.3940614704	 0.160921
68.8724	109.5051	157.4703	256.681	291.0881	330.79	452.4582	456.3152	489.2749	533.8141	632.8606	693.3398	744.1174	785.3842	801.8219	828.0193	886.9362	975.1588	1004.3899	1054.0547	1069.6366	1086.4866	1109.8701	1131.2791	1142.9856	1169.9916	1219.2142	1238.2087	1274.2238	1297.1232	1303.457	1352.8362	1381.3656	1414.5003	1444.8908	1452.8153	1462.3569	1510.518	1851.3078	2982.9403	3041.9299	3053.1471	3082.4426	3095.1557	3099.9324	3103.6246	3145.4007	3810.3876
OCC1C2CC(=O)CN12	OC[C@H]1[C@H]2CC(=O)CN12	
InChI=1S/C6H9NO2/c8-3-6-5-1-4(9)2-7(5)6/h5-6,8H,1-3H2	InChI=1S/C6H9NO2/c8-3-6-5-1-4(9)2-7(5)6/h5-6,8H,1-3H2/t5-,6+,7?/m1/s1
