23
gdb 103643	2.05576	1.41398	1.28375	2.5353	81.84	-0.2444	0.0713	0.3157	1197.3273	0.203368	-425.412449	-425.402109	-425.401165	-425.446926	39.188	
C	-0.153669898	 1.4009868323	 0.0392879234	-0.252656
O	 0.0148124633	-0.0031452936	 0.0448838317	-0.293799
C	 0.6983381543	-0.5574631686	 1.1799869563	 0.389537
C	 2.0852151279	 0.0353394485	 1.369837206	-0.477121
C	-0.2729176875	-0.6427965615	 2.398675509	-0.304368
C	-0.763734144	-2.0157103278	 1.8544928419	 0.127913
O	-1.9279287355	-1.9369331125	 1.0621467343	-0.439492
C	 0.5692951929	-2.1080447594	 1.0446710935	-0.032806
C	 0.5873023881	-2.7695093595	-0.3231575209	-0.40661
H	 0.7943407741	 1.9296528916	-0.1231834224	 0.116318
H	-0.8265217123	 1.6338576544	-0.7898484714	 0.128711
H	-0.6035953237	 1.770926224	 0.9712949568	 0.111103
H	 2.0490261145	 1.0911039979	 1.6569102217	 0.118233
H	 2.6144405154	-0.5007834617	 2.1628568403	 0.118612
H	 2.6711506133	-0.0491198441	 0.4482179227	 0.124791
H	 0.2655509962	-0.7348566511	 3.3462853237	 0.097444
H	-1.0333569614	 0.136495345	 2.4927450015	 0.099404
H	-0.9479242469	-2.8042148774	 2.5881908259	 0.074233
H	-1.7641219242	-1.2430631414	 0.4099925064	 0.283126
H	 1.3313775931	-2.5576850611	 1.691758956	 0.069476
H	-0.1877677815	-2.3628857093	-0.9747948589	 0.124125
H	 1.5532567323	-2.6256203059	-0.8187904352	 0.109614
H	 0.4163650397	-3.8468066888	-0.2274908123	 0.114212
105.6753	138.1088	162.7749	178.825	191.0623	206.5598	246.7627	262.8744	328.0403	360.8906	397.3511	439.6235	495.4457	524.7815	587.1593	670.482	732.2532	817.5648	849.4723	873.9173	885.0843	965.3619	999.6891	1017.1013	1059.932	1099.2638	1116.6745	1149.051	1160.3518	1182.3324	1197.0759	1203.3161	1225.3638	1256.0864	1264.5729	1286.7884	1331.5861	1372.6809	1404.02	1411.5406	1450.1401	1464.6608	1477.2041	1486.2867	1486.3559	1490.9738	1495.676	1505.5207	1512.0869	2999.5549	3033.3618	3036.7277	3043.3628	3054.6716	3057.3524	3082.6053	3097.5939	3101.9088	3109.9197	3112.5836	3116.0448	3134.4325	3761.6468
COC1(C)CC(O)C1C	CO[C@@]1(C)C[C@@H](O)[C@H]1C	
InChI=1S/C7H14O2/c1-5-6(8)4-7(5,2)9-3/h5-6,8H,4H2,1-3H3	InChI=1S/C7H14O2/c1-5-6(8)4-7(5,2)9-3/h5-6,8H,4H2,1-3H3/t5-,6-,7+/m1/s1
