15
gdb 34788	2.44482	1.51652	1.10385	1.6151	79.15	-0.247	0.0067	0.2538	1094.5494	0.109905	-383.346069	-383.338086	-383.337142	-383.378482	31.081	
C	-0.1360751038	-1.2995555231	-0.0493292559	-0.434575
C	-0.0679856821	-0.099133949	-0.0198373955	 0.296076
C	 0.0033746056	 1.3425731464	 0.0097945296	-0.218349
C	 0.1415573016	 2.1302020329	 1.3510922941	 0.018093
C	 1.5874043815	 1.6194605002	 1.5246544092	-0.278657
C	 1.3936040054	 2.0942646169	 0.056159048	 0.34935
O	 0.6597190498	 3.2786155672	 0.5804337287	-0.33532
C	 2.3502773397	 2.2565922571	-0.9925627386	 0.083727
C	 3.1566841431	 2.3633358892	-1.8774150574	-0.348595
H	-0.1946883189	-2.3596499759	-0.0774795634	 0.200449
H	-0.6878939857	 1.8225054114	-0.6855259092	 0.120798
H	-0.625754202	 2.3277949957	 2.0970212815	 0.110339
H	 2.2341251094	 2.2627380799	 2.1205568865	 0.120183
H	 1.746467776	 0.5541099002	 1.6941933592	 0.124344
H	 3.8679781106	 2.463185701	-2.6601473071	 0.192138
93.9208	167.7048	169.1792	203.9226	408.1805	409.464	486.6988	507.4692	561.0213	580.3797	622.9689	634.9132	640.9906	653.897	689.9981	721.4157	841.1963	900.5091	918.9253	950.2563	972.4825	1052.8316	1071.7093	1093.1367	1136.739	1204.7234	1218.2624	1229.2437	1280.7615	1352.0367	1485.8266	2232.0583	2241.2683	3088.1087	3102.4515	3145.5432	3170.8544	3499.9568	3501.925
C#CC1C2CC1(O2)C#C	C#C[C@H]1[C@H]2C[C@@]1(O2)C#C	
InChI=1S/C8H6O/c1-3-6-7-5-8(6,4-2)9-7/h1-2,6-7H,5H2	InChI=1S/C8H6O/c1-3-6-7-5-8(6,4-2)9-7/h1-2,6-7H,5H2/t6-,7+,8-/m0/s1
