23
gdb 76139	2.13203	1.2529	1.09449	2.4951	88.31	-0.2358	-0.0093	0.2265	1316.0273	0.202608	-388.317475	-388.306667	-388.305723	-388.35278	39.999	
C	-0.1965939157	 1.603521024	 0.1094548739	-0.426668
C	 0.0197196522	 0.1058347838	 0.1011532579	-0.049663
C	 1.3838030257	-0.5359878565	-0.2116100615	-0.184351
C	 2.6098284745	 0.267431629	-0.4672928193	 0.394124
C	 3.5793318541	-0.3388156684	-1.4710074412	-0.480028
O	 2.855179527	 1.3339378591	 0.0660507683	-0.335403
C	 0.7247439704	-0.6546694459	 1.1806746868	 0.309567
C	 1.3285297035	 0.0635067448	 2.3727151278	-0.465256
C	 0.1883477889	-2.0356115801	 1.5192935795	-0.444255
H	 0.6835797491	 2.1450702745	 0.453930722	 0.158164
H	-0.4309330753	 1.9594561805	-0.8995889592	 0.113811
H	-1.0446588599	 1.8589780175	 0.7547466768	 0.112704
H	-0.7994351418	-0.440255371	-0.363222488	 0.084131
H	 1.3350643705	-1.4429768738	-0.8068106146	 0.076018
H	 3.0871318659	-0.4773878832	-2.4405674922	 0.137395
H	 4.4455654082	 0.3131489505	-1.5880439813	 0.137265
H	 3.904307632	-1.3305940967	-1.1359392343	 0.136896
H	 1.8163571181	 0.9960414353	 2.0943314726	 0.158824
H	 0.5489601008	 0.2773779657	 3.1133180053	 0.110366
H	 2.0765010904	-0.5725427433	 2.8598715921	 0.110186
H	 0.9812700332	-2.6825553217	 1.9118993316	 0.1163
H	-0.5916779947	-1.9662367884	 2.286874837	 0.118776
H	-0.2479554472	-2.5285729854	 0.6448995699	 0.111096
65.6524	137.5586	153.15	167.4778	191.095	214.5103	218.5724	251.8991	265.0826	337.946	355.2474	403.6016	426.9994	483.697	603.0015	628.8852	686.8002	753.073	817.4421	917.2341	963.1011	971.363	976.0955	992.4123	1009.9601	1050.5355	1069.85	1109.8019	1136.7362	1143.3818	1159.3868	1201.9854	1256.2988	1336.2116	1374.8475	1393.9285	1408.4577	1415.4534	1425.99	1439.9667	1464.6932	1476.3414	1483.3111	1487.1407	1494.8015	1502.9613	1514.2626	1521.0469	1772.9368	3021.3431	3029.8761	3032.8672	3035.7623	3079.9669	3084.3207	3088.1113	3093.0077	3098.9264	3115.3404	3145.7968	3152.2439	3158.7405	3166.0298
CC1C(C(C)=O)C1(C)C	C[C@H]1[C@@H](C(=O)C)C1(C)C	
InChI=1S/C8H14O/c1-5-7(6(2)9)8(5,3)4/h5,7H,1-4H3	InChI=1S/C8H14O/c1-5-7(6(2)9)8(5,3)4/h5,7H,1-4H3/t5-,7-/m0/s1
