20
gdb 83651	2.55519	1.70343	1.20258	2.0703	79.81	-0.2048	0.0728	0.2775	1086.6412	0.170514	-403.074154	-403.065909	-403.064964	-403.106877	32.064	
C	-0.1125855399	 1.6246092947	 0.1141383748	-0.333801
N	-0.0683650389	 0.1776602588	 0.1106063921	-0.131884
C	-1.3137360706	-0.5494358687	 0.4564585785	-0.037601
C	-1.4792301187	-1.8510833326	-0.3457580921	-0.079293
O	-0.6415705498	-2.5770611002	 0.5923065619	-0.294799
C	-0.5297397283	-1.4297920127	 1.4585663048	-0.007538
C	 0.6640739746	-0.5242013026	 1.1831351311	 0.369456
C	 2.1153341841	-0.8658507815	 1.1924226224	-0.310741
C	 1.5547493994	 0.0971061492	 2.2242800709	-0.340749
H	 0.8828148095	 2.0289107627	-0.0986580682	 0.121853
H	-0.7800170223	 1.9667494202	-0.6835746988	 0.120809
H	-0.4606615157	 2.0627822141	 1.0674052765	 0.094917
H	-2.1853376578	 0.0644970637	 0.6910155887	 0.076501
H	-2.497000255	-2.2623840939	-0.3620339579	 0.096029
H	-1.0604626249	-1.8319044117	-1.3568860426	 0.109129
H	-0.7902599871	-1.6553041308	 2.4953965758	 0.079573
H	 2.4025561688	-1.8640229733	 1.5051256087	 0.122534
H	 2.7283867573	-0.4476607152	 0.400581994	 0.117039
H	 1.810011341	 1.1465841249	 2.1232038072	 0.114738
H	 1.4531498844	-0.2383099751	 3.2521086922	 0.113828
74.0112	188.4367	205.6248	218.9256	248.1171	289.1917	343.4902	417.5868	527.0773	582.3881	704.2492	769.6213	791.7606	821.5388	869.3429	901.0959	921.0008	956.575	977.9993	982.149	1002.5412	1027.5618	1047.9558	1064.2534	1066.3041	1148.7505	1156.0316	1181.3275	1184.9151	1190.0098	1195.7344	1239.8367	1254.7944	1285.5181	1330.5049	1357.261	1383.2823	1453.3684	1458.7469	1486.3297	1498.8467	1502.2853	1505.3169	2936.5653	3012.4417	3056.5997	3076.9402	3082.7189	3093.253	3097.6399	3123.5476	3130.0729	3204.8944	3220.4507
CN1C2COC2C11CC1	CN1[C@H]2CO[C@H]2C21CC2	
InChI=1S/C7H11NO/c1-8-5-4-9-6(5)7(8)2-3-7/h5-6H,2-4H2,1H3	InChI=1S/C7H11NO/c1-8-5-4-9-6(5)7(8)2-3-7/h5-6H,2-4H2,1H3/t5-,6+/m0/s1
