15
gdb 77786	2.84229	1.37408	1.09639	3.8237	71.77	-0.2713	-0.042	0.2293	1092.6449	0.111592	-416.802144	-416.794005	-416.793061	-416.834913	29.978	
C	 0.0131853925	 1.560467753	-0.0061084828	-0.427815
C	 0.0371194339	 0.0571407858	 0.1279385062	-0.028465
N	 1.2330888674	-0.7792362185	-0.1930547572	-0.204007
C	 2.3974191886	-0.0577285401	 0.3158164638	 0.416402
O	 3.3620330351	 0.2996826504	-0.2775600832	-0.279255
C	 1.9396399598	-0.0594735242	 1.7802187875	-0.436115
C	 0.6545012758	-0.7021827947	 1.2453115645	 0.158163
C	 0.0196381284	-1.8307529266	 1.8547673554	 0.228492
N	-0.5075440041	-2.7164174651	 2.3795470449	-0.325616
H	 0.8776904098	 2.0510033756	 0.4454861145	 0.1413
H	-0.0109703226	 1.8334225313	-1.0653675198	 0.155134
H	-0.8914789413	 1.9552328748	 0.465934326	 0.14443
H	-0.8465103777	-0.4280912993	-0.2802709998	 0.137793
H	 2.5364081436	-0.7494021468	 2.3812910262	 0.169703
H	 1.8616730009	 0.8989917246	 2.2965071738	 0.149855
105.2742	150.8985	161.0643	176.5664	253.5969	349.0873	437.8014	480.786	503.1558	550.4235	600.5797	606.554	651.2108	742.2426	833.5738	882.0388	956.6137	1015.0499	1029.7546	1055.3165	1115.2154	1123.3968	1174.7529	1215.4976	1262.0923	1311.7206	1412.201	1433.9455	1458.4156	1485.1366	1497.1429	1931.1625	2355.1534	3049.9824	3081.4936	3116.9758	3128.7351	3138.6804	3150.0035
CC1N2C(=O)CC12C#N	C[C@H]1N2C(=O)C[C@@]12C#N	
InChI=1S/C6H6N2O/c1-4-6(3-7)2-5(9)8(4)6/h4H,2H2,1H3	InChI=1S/C6H6N2O/c1-4-6(3-7)2-5(9)8(4)6/h4H,2H2,1H3/t4-,6-,8?/m1/s1
