15
gdb 30901	2.46378	1.34118	0.91657	2.8759	66.23	-0.197	0.0228	0.2198	1218.3078	0.112964	-491.112643	-491.103956	-491.103012	-491.146115	31.904	
N	 0.0660620691	 1.2442594024	 0.0155035096	-0.586639
C	-0.0413628845	-0.1178503672	-0.0189274088	 0.466549
N	-1.1388214348	-0.823577953	-0.000348912	-0.421641
C	-0.6713153471	-2.1237056995	 0.0253932997	 0.254125
O	-1.5249516968	-3.1647555778	 0.0500316828	-0.431464
C	 0.6852448606	-2.167640838	 0.0191689519	 0.174266
C	 1.7057659037	-3.2345956982	 0.0117518053	-0.18479
O	 2.3953520965	-3.3906555501	-1.2306423609	-0.415276
O	 1.0958177788	-0.8206070948	-0.0122393691	-0.212049
H	 0.9211305252	 1.6184092706	-0.3671964615	 0.27018
H	-0.7694213037	 1.7288381588	-0.2738871786	 0.273139
H	-2.4137008471	-2.7908964547	 0.0804688951	 0.305732
H	 2.4934922117	-3.0282377151	 0.7444172789	 0.119981
H	 1.2061454864	-4.1659983126	 0.3162379363	 0.111963
H	 1.722960152	-3.5011236506	-1.9114445388	 0.275925
78.7505	114.2203	220.4256	232.4166	286.7187	311.1802	331.1277	350.0702	370.191	459.0612	548.1789	553.5089	657.1999	661.9285	718.9924	764.2208	839.9151	927.4406	1017.8114	1039.901	1088.0213	1140.0178	1182.4741	1239.0776	1314.5055	1363.5854	1404.8155	1427.6711	1464.8872	1484.2292	1600.1432	1679.4386	1738.3222	3004.1918	3069.1704	3586.4692	3698.6213	3807.3804	3809.328
NC1=NC(O)=C(CO)O1	Nc1nc(O)c(CO)o1	
InChI=1S/C4H6N2O3/c5-4-6-3(8)2(1-7)9-4/h7-8H,1H2,(H2,5,6)	InChI=1S/C4H6N2O3/c5-4-6-3(8)2(1-7)9-4/h7-8H,1H2,(H2,5,6)
