16
gdb 67181	2.86577	1.5289	1.49526	2.7812	68.21	-0.2306	-0.0214	0.2093	946.9519	0.125617	-437.856528	-437.849518	-437.848574	-437.887806	28.248	
O	-0.1225712144	 1.4118631133	 0.0320935119	-0.453782
C	 0.0045834817	 0.0484557429	-0.0071087715	 0.361739
C	-1.1538803664	-0.9008839237	-0.1325528653	-0.10223
C	-1.0074456282	-1.779689367	-1.3586640293	-0.361895
C	 0.4638859357	-1.5772389068	-1.7867942822	 0.407599
O	 0.9753267953	-1.9753623011	-2.8003735488	-0.320689
C	 1.1376645029	-0.8047306498	-0.6538188146	-0.187138
N	 1.1100094273	-1.6807580161	 0.5683676358	-0.311596
C	-0.1360764217	-1.0550351681	 1.0141967726	-0.118002
H	 0.5978237858	 1.7739104408	 0.5610641929	 0.295016
H	-2.1256378536	-0.5210097174	 0.1620529169	 0.102207
H	-1.21763885	-2.8426568218	-1.1988123843	 0.129339
H	-1.658095499	-1.4453254384	-2.173358143	 0.141377
H	 2.1114820872	-0.375979609	-0.8901062021	 0.090591
H	 1.0446803308	-2.6785839888	 0.3625393943	 0.222963
H	-0.4279663734	-1.0487273489	 2.0581619567	 0.104498
104.7453	231.6495	320.9985	325.09	379.3677	449.8433	478.8366	562.4613	587.7598	640.7158	709.9862	727.2126	781.1845	847.658	896.0265	921.4223	955.274	980.7455	1000.8189	1037.9171	1047.2524	1100.5271	1124.1739	1162.7758	1168.7959	1196.7838	1227.4508	1248.9019	1290.1055	1296.9098	1337.5577	1359.2861	1453.8887	1490.7712	1841.3294	3051.4263	3090.9371	3119.1014	3177.5599	3187.9594	3437.6165	3788.4855
OC12C3CC(=O)C1NC23	O[C@@]12[C@H]3CC(=O)[C@@H]1N[C@@H]23	
InChI=1S/C6H7NO2/c8-3-1-2-4-6(2,9)5(3)7-4/h2,4-5,7,9H,1H2	InChI=1S/C6H7NO2/c8-3-1-2-4-6(2,9)5(3)7-4/h2,4-5,7,9H,1H2/t2-,4+,5-,6+/m0/s1
