17
gdb 126881	4.11922	1.07409	0.914	1.8592	81.54	-0.2217	-0.0704	0.1514	1280.404	0.137835	-414.186604	-414.178439	-414.177495	-414.219808	30.105	
C	 0.0269345018	 1.3790984631	-0.1526531305	-0.372445
C	-0.0340098334	-0.1170148945	 0.1935248723	-0.15807
N	-1.3856701226	-0.6461573452	 0.1230969017	-0.315519
C	-1.8509392565	-1.0404929027	-1.0024197277	 0.373461
N	-1.2129937123	-1.0371134985	-2.244995342	-0.307608
N	-1.7290685138	-1.5207657443	-3.3957278697	-0.172813
C	-2.9310591934	-1.9918507037	-3.3229732413	 0.077337
N	-3.7287623884	-2.0405034211	-2.1904554616	-0.244678
C	-3.2046433019	-1.5854051859	-1.1044612174	 0.009136
H	 1.0430819975	 1.7650272586	-0.0238450898	 0.116611
H	-0.2807933326	 1.569293227	-1.1865018154	 0.111313
H	-0.6443067055	 1.9427354775	 0.5009248277	 0.135391
H	 0.6750228965	-0.6760750408	-0.4440467579	 0.077075
H	 0.3191140737	-0.2546210274	 1.2210329957	 0.111375
H	-0.2767609735	-0.6784759778	-2.3395043701	 0.277414
H	-3.356586146	-2.3808436454	-4.239576182	 0.137052
H	-3.7809457096	-1.5996398089	-0.1814231019	 0.144969
77.3108	95.5283	161.7881	207.3379	280.6241	352.2688	402.4668	468.2581	530.6527	590.605	635.0552	639.642	745.9472	793.3614	822.9902	904.4572	911.2645	993.3632	994.5166	1042.1806	1095.7741	1117.8741	1144.8323	1187.6552	1292.1051	1306.6836	1361.0671	1367.6122	1393.8085	1404.0698	1436.5905	1489.9556	1501.6694	1532.117	1580.7211	1654.9781	1706.91	2932.1158	3036.6292	3054.9803	3104.898	3120.6005	3161.8032	3218.9264	3648.772
CCN=C1NN=CN=C1	CCN=c1[nH]ncnc1	
InChI=1S/C5H8N4/c1-2-7-5-3-6-4-8-9-5/h3-4H,2H2,1H3,(H,7,9)	InChI=1S/C5H8N4/c1-2-7-5-3-6-4-8-9-5/h3-4H,2H2,1H3,(H,7,9)
