21
gdb 5838	2.98533	1.49687	1.29055	4.0812	75.94	-0.2358	0.0352	0.271	1070.9686	0.186735	-366.29295	-366.283191	-366.282247	-366.327163	36.118	
C	 0.2604074286	 1.4262362797	 0.0239751288	-0.354643
N	 0.0992233657	-0.0243228462	 0.0318307913	-0.06675
C	-0.0604009568	-0.618015848	 1.2522493441	 0.150194
O	-0.0448951407	-0.0371173203	 2.3218171805	-0.356677
C	 0.0166883027	-0.7440454341	-1.2656392078	 0.246025
C	 1.1627200213	-0.2641065961	-2.1789075351	-0.39653
C	 0.1613643718	-2.2662295797	-1.0876741876	-0.422729
C	-1.343858416	-0.4526424339	-1.9339642909	-0.389621
H	 1.2782686131	 1.7204116116	-0.2528555372	 0.126151
H	-0.4390966036	 1.8996368085	-0.6713322514	 0.121028
H	 0.0585430206	 1.7789288071	 1.0347523238	 0.168899
H	-0.2064139026	-1.7054459405	 1.1906721849	 0.079614
H	 2.1347072729	-0.4375869252	-1.7069567479	 0.123373
H	 1.137477863	-0.8152273601	-3.1233226581	 0.117548
H	 1.080958692	 0.7990694552	-2.4166502765	 0.120733
H	-0.6863757656	-2.7136548593	-0.5627121771	 0.128235
H	 0.2049419044	-2.725444896	-2.0792692451	 0.119082
H	 1.0806105081	-2.5271486928	-0.5553791435	 0.127926
H	-1.4828455972	 0.6148014963	-2.1251692824	 0.119334
H	-1.4156400771	-0.9712624667	-2.8953073569	 0.116739
H	-2.1648706345	-0.7949871796	-1.2970917259	 0.122071
39.5233	126.2047	166.0276	224.1516	272.2824	287.7147	309.8596	332.3346	342.3359	369.3779	387.2694	411.5773	464.6046	471.7444	592.7543	792.8336	860.5288	914.3595	932.4471	962.2814	1021.3793	1044.5888	1047.4339	1053.866	1152.5409	1186.8817	1229.3892	1240.3195	1272.8953	1384.6188	1399.386	1403.3988	1428.3383	1440.7216	1453.9319	1478.3521	1484.0976	1490.1545	1499.7664	1506.1961	1510.6178	1520.8526	1526.968	1772.5113	3031.1281	3037.6301	3039.226	3043.2071	3050.2199	3092.7078	3108.2906	3111.7937	3117.5996	3119.7404	3121.6589	3124.9798	3159.569
CN(C=O)C(C)(C)C	CN(C=O)C(C)(C)C	
InChI=1S/C6H13NO/c1-6(2,3)7(4)5-8/h5H,1-4H3	InChI=1S/C6H13NO/c1-6(2,3)7(4)5-8/h5H,1-4H3
