16
gdb 6457	4.67071	1.26821	1.18582	0.9996	61.82	-0.2636	-0.0394	0.2242	1017.2265	0.128533	-420.871345	-420.863367	-420.862423	-420.903637	29.979	
O	 0.6732712528	 0.6233897592	-0.7979246133	-0.431327
C	-0.024335025	-0.264771742	 0.0331587811	 0.181779
C	 0.1077496016	-0.1378482696	 1.5729391508	-0.336903
C	-1.4235813409	-0.44682079	 1.7061821012	 0.339382
O	-2.1492351791	 0.3606720352	 2.577255847	-0.480132
C	-1.5624723206	-0.1323449716	 0.1766076657	-0.336942
C	-1.6801218524	-1.9007358158	 2.0076290722	 0.113668
O	-2.4230389668	-2.2495591756	 2.894319508	-0.28011
H	 0.4500790265	 1.5219410171	-0.5318185129	 0.27995
H	 0.2601986359	-1.2635985858	-0.3108285123	 0.095324
H	 0.8247223661	-0.7763126683	 2.0947652057	 0.111741
H	 0.2647120354	 0.901291002	 1.8774409133	 0.120056
H	-2.6374345637	-0.2450885545	 3.1583320654	 0.29185
H	-1.8853352921	 0.9087003063	 0.0801460868	 0.120001
H	-2.2061787893	-0.765400799	-0.4389136947	 0.111758
H	-1.1493212084	-2.6380274575	 1.3706704761	 0.099905
88.7618	109.0703	277.7786	289.1781	299.2287	354.3397	362.6758	439.2875	448.8288	495.6511	521.9932	684.713	802.951	834.3799	855.5367	888.9223	951.5281	1019.9504	1036.733	1078.5101	1083.9291	1088.9456	1165.7979	1206.7576	1254.9538	1277.165	1302.4091	1337.2102	1391.5344	1440.9284	1443.5476	1457.7667	1486.783	1806.4328	2925.227	3056.754	3060.8714	3066.6005	3117.9271	3121.729	3679.9566	3806.3173
OC1CC(O)(C1)C=O	O[C@H]1C[C@@](O)(C1)C=O	
InChI=1S/C5H8O3/c6-3-5(8)1-4(7)2-5/h3-4,7-8H,1-2H2	InChI=1S/C5H8O3/c6-3-5(8)1-4(7)2-5/h3-4,7-8H,1-2H2/t4-,5+
