17
gdb 94965	3.58314	1.38052	1.20092	0.9146	68.5	-0.2429	0.0149	0.2578	1035.437	0.138712	-455.138173	-455.130801	-455.129857	-455.17003	28.98	
O	 0.1584908861	 1.2989634168	 0.1915239198	-0.434778
C	-0.0462053471	-0.0753425661	-0.085231185	 0.123504
C	 0.5675627083	-0.9729597917	 1.0009153927	-0.22345
N	-0.4073900453	-0.8006898461	 2.0932614668	-0.318253
C	-1.7305146241	-0.9009291327	 1.4847334098	-0.142552
C	-1.5412669326	-0.3969400286	 0.0313564762	 0.083949
O	-1.8937546045	-1.7251317497	-0.480445873	-0.27244
C	-2.0928116066	-2.2169496057	 0.7962685831	 0.427704
N	-2.4204956466	-3.3591384815	 1.1934188564	-0.551829
H	 0.02718633	 1.4057398953	 1.142735158	 0.292884
H	 0.3470891512	-0.2730091617	-1.0843664096	 0.10053
H	 0.6511776064	-2.008645059	 0.638169727	 0.111884
H	 1.5584177605	-0.6259792828	 1.3038631386	 0.116156
H	-0.2797113517	-1.4620509471	 2.8511620076	 0.241283
H	-2.5094343744	-0.4705952715	 2.1149533119	 0.10978
H	-2.192251508	 0.3757470739	-0.3753011949	 0.105391
H	-2.5548174316	-4.0065683716	 0.4141573446	 0.230237
100.1654	150.3324	252.0855	279.4601	372.6185	441.841	452.153	470.6005	594.2324	695.5332	718.1631	789.2274	846.6397	864.8166	871.3721	883.9914	951.1506	977.0099	985.0711	1003.1894	1018.6519	1055.8552	1098.475	1119.0775	1199.6012	1209.0844	1220.2572	1245.1106	1289.821	1293.5427	1310.9576	1338.3521	1370.0119	1415.8331	1439.0268	1515.144	1821.4037	2991.9096	3099.1416	3104.8782	3110.3704	3134.89	3468.7769	3547.4425	3770.3338
OC1CNC2C1OC2=N	O[C@H]1CN[C@H]2[C@@H]1O[C]2[NH]	
InChI=1S/C5H8N2O2/c6-5-3-4(9-5)2(8)1-7-3/h2-4,6-8H,1H2	InChI=1S/C5H8N2O2/c6-5-3-4(9-5)2(8)1-7-3/h2-4,6-8H,1H2/t2-,3-,4+/m0/s1
