21
gdb 92097	2.68419	1.4064	1.01967	1.6573	83.45	-0.2406	0.0116	0.2522	1204.4196	0.184791	-387.083966	-387.075796	-387.074852	-387.116348	33.051	
O	 0.430683844	 1.1889777802	 0.5913472459	-0.436237
C	 0.0766514061	-0.0800300407	 0.0304661249	 0.09544
C	-1.4384141339	-0.3137898826	 0.1208803225	-0.257739
C	-1.8184376741	-1.734319993	-0.2409358948	 0.007653
C	-3.0696166883	-2.0525875514	-1.0248120647	-0.326978
C	-1.713311655	-2.1740377346	-1.6776619237	 0.014816
C	-1.2556999273	-1.1711156851	-2.7285830083	-0.288993
C	 0.1368583307	-0.619664447	-2.4986987527	-0.069422
C	 0.6769648834	-0.1962569536	-1.35292381	-0.066519
H	 0.1124874057	 1.8651216335	-0.0174588289	 0.273481
H	 0.5778455897	-0.8030477359	 0.6899741604	 0.091818
H	-1.7542767354	-0.0761919517	 1.1426003737	 0.103957
H	-1.9495480852	 0.4012980558	-0.5357102913	 0.085824
H	-1.5227207419	-2.4714992996	 0.5016488375	 0.081522
H	-3.617248575	-2.956967269	-0.7826416708	 0.109625
H	-3.7004021287	-1.2218655086	-1.3277169827	 0.107262
H	-1.3432757823	-3.1824211088	-1.8393713433	 0.082835
H	-1.2932701657	-1.6430398205	-3.716587665	 0.101773
H	-1.9722974223	-0.3414255991	-2.7855377611	 0.111218
H	 0.7665714996	-0.5660692368	-3.3850946901	 0.087755
H	 1.7054497558	 0.1613622384	-1.3784711473	 0.090914
95.9921	179.5142	265.7874	286.2119	318.7181	325.215	350.7981	412.2644	436.2862	550.3202	593.7376	663.8075	742.8041	815.7521	821.7883	843.4693	874.4735	926.7474	940.9887	962.5401	1010.8649	1020.9359	1043.447	1060.0878	1067.835	1090.6625	1124.4071	1140.0749	1153.0781	1223.3632	1242.3919	1245.4024	1251.8212	1273.9519	1315.9953	1349.879	1380.2653	1392.8226	1404.6412	1427.401	1431.6861	1479.7186	1491.3929	1502.3565	1718.5525	3004.2674	3017.2755	3031.9094	3056.6003	3072.1016	3123.2407	3125.9983	3130.9999	3145.8928	3150.5625	3208.1774	3796.5325
OC1CC2CC2CC=C1	O[C@H]1C[C@H]2C[C@H]2CC=C1	
InChI=1S/C8H12O/c9-8-3-1-2-6-4-7(6)5-8/h1,3,6-9H,2,4-5H2	InChI=1S/C8H12O/c9-8-3-1-2-6-4-7(6)5-8/h1,3,6-9H,2,4-5H2/t6-,7-,8-/m1/s1
