19
gdb 128131	3.10953	1.24203	0.94855	2.3858	80.1	-0.1961	0.0411	0.2373	1272.4642	0.160843	-415.391996	-415.382397	-415.381452	-415.426856	34.343	
C	 0.2020992562	 1.0491607769	-0.6077659741	-0.320415
N	-0.0303135427	 0.0591484784	 0.4491765898	-0.401238
C	-1.2535851941	-0.6558820418	 0.3467382526	 0.064568
C	-1.3267346234	-2.0010882399	 0.0115457876	 0.355209
N	-0.3020549034	-2.8784893293	-0.33945895	-0.611551
N	-2.63876133	-2.3352053667	-0.0072680546	-0.005627
C	-3.2116911418	-3.6282916277	-0.2929976731	-0.335398
N	-3.4423528111	-1.2835228734	 0.3260721886	-0.292638
C	-2.6048306514	-0.2726492405	 0.522316993	-0.055552
H	 1.169716154	 1.534059742	-0.4423621875	 0.111115
H	 0.237362767	 0.5399470792	-1.5753947836	 0.128616
H	-0.5722352253	 1.8300863224	-0.6695468589	 0.104555
H	 0.0520098079	 0.5054000158	 1.3560642003	 0.225116
H	 0.5861000401	-2.4132796962	-0.1774027447	 0.255691
H	-0.3215068436	-3.7525576542	 0.1741266159	 0.246121
H	-3.1585863866	-4.3021897211	 0.5715821707	 0.127456
H	-4.2590382306	-3.4761954542	-0.5537897406	 0.159652
H	-2.6852851051	-4.0883511357	-1.134318529	 0.144448
H	-2.9966050161	 0.6980187958	 0.7939905175	 0.099873
53.4942	92.7158	117.2813	179.5409	199.836	256.9688	281.5454	291.6985	308.0539	417.9998	532.0585	585.1282	649.5849	697.9736	728.7838	773.6886	812.4206	841.6503	877.3034	984.5086	1027.7612	1077.289	1146.4755	1151.2671	1170.7861	1202.752	1247.8877	1252.7083	1314.6567	1391.6062	1435.0173	1453.5077	1458.9291	1472.8335	1490.074	1491.3528	1507.4626	1517.4052	1574.2924	1618.377	1658.7854	2977.9776	3020.5296	3066.3579	3092.3435	3108.353	3156.9616	3228.7566	3500.7117	3518.1013	3588.421
CNC1=C(N)N(C)N=C1	CNc1c(N)n(C)nc1	
InChI=1S/C5H10N4/c1-7-4-3-8-9(2)5(4)6/h3,7H,6H2,1-2H3	InChI=1S/C5H10N4/c1-7-4-3-8-9(2)5(4)6/h3,7H,6H2,1-2H3
