17
gdb 63347	2.60221	1.4459	1.15385	1.8733	70.87	-0.2603	-0.0143	0.246	1090.2823	0.136152	-455.209057	-455.200582	-455.199638	-455.242174	32.485	
C	 0.0823783189	 1.5575300899	 0.0086956333	-0.427372
C	-0.0381714009	 0.0267789963	-0.0042647801	 0.34321
O	-1.3948297229	-0.3707197939	 0.0037125442	-0.474062
C	 0.7029620841	-0.6117827006	-1.1939671077	-0.384848
C	 1.9937521586	-1.1811611602	-0.616061664	 0.407414
O	 2.9498133358	-1.6259972539	-1.1960782682	-0.344902
N	 1.8678692595	-1.120215965	 0.7734601778	-0.369495
C	 0.6836743447	-0.5590003645	 1.2185055064	 0.348347
N	 0.1754557986	-0.4909172471	 2.3781253782	-0.550869
H	 1.1279603764	 1.8804765732	-0.040226627	 0.117355
H	-0.4522020875	 1.9675551808	-0.8526461815	 0.130127
H	-0.3591560332	 1.95715236	 0.9253583071	 0.135205
H	-1.6761478215	-0.3338731158	 0.9286554491	 0.292953
H	 0.1087044789	-1.4374638545	-1.5965353568	 0.157549
H	 0.9228277269	 0.0769412876	-2.0113708157	 0.137815
H	 2.573171528	-1.5208553163	 1.3757732738	 0.262411
H	 0.7434731057	-0.936606686	 3.0984209913	 0.219162
58.1008	133.7883	230.7182	273.0636	298.2413	331.5601	356.4327	421.388	428.089	539.6145	570.8657	599.3345	639.771	645.5936	715.0276	744.7036	861.6914	878.7201	907.0252	948.4684	982.1755	1089.8657	1102.0865	1135.184	1166.2755	1228.7202	1238.4754	1295.5027	1359.7284	1384.4944	1401.6963	1407.817	1454.7605	1488.7643	1494.0183	1765.8214	1862.3515	3037.1247	3075.3517	3111.3607	3127.8328	3130.0845	3479.0017	3611.3968	3751.6485
CC1(O)CC(=O)NC1=N	C[C@@]1(O)CC(=O)N[C]1[NH]	
InChI=1S/C5H8N2O2/c1-5(9)2-3(8)7-4(5)6/h9H,2H2,1H3,(H2,6,7,8)	InChI=1S/C5H8N2O2/c1-5(9)2-3(8)7-4(5)6/h9H,2H2,1H3,(H2,6,7,8)/t5-/m1/s1
