21
gdb 98193	2.6678	1.05546	0.98873	2.0704	75.48	-0.255	0.0088	0.2639	1363.7592	0.178629	-461.403158	-461.39192	-461.390976	-461.440057	39.514	
C	-0.5045671463	 1.3583934104	 0.1775025119	-0.399608
C	-0.1226844946	-0.1233375616	 0.2069420787	-0.192015
C	 0.9834073003	-0.4658120415	 1.2437628892	 0.224939
C	 2.3103601097	 0.2311677628	 0.9454480277	-0.402568
O	 0.5892760051	-0.0671958146	 2.5502425608	-0.465086
C	 1.1818731764	-1.9879530758	 1.1689970383	 0.435032
O	 1.9231188252	-2.5633447171	 0.4153533426	-0.368445
O	 0.3557769064	-2.6245877901	 2.0309026604	-0.258228
C	 0.4172286678	-4.0570869648	 2.0043219893	-0.243479
H	 0.3064693741	 1.981450779	-0.2103189027	 0.1204
H	-1.375529502	 1.514351671	-0.4659914482	 0.11146
H	-0.7513830643	 1.7086989861	 1.182989501	 0.133214
H	-1.0080731423	-0.7208179189	 0.4599496818	 0.094391
H	 0.2084055172	-0.458959396	-0.7826818658	 0.111549
H	 2.1821368443	 1.3139780546	 0.9992508568	 0.125452
H	 3.0596091669	-0.0597503575	 1.68569061	 0.125459
H	 2.6744816004	-0.0450678455	-0.0453216835	 0.133652
H	-0.0464032239	-0.7176697201	 2.8688997882	 0.287336
H	 1.4202797212	-4.4004684954	 2.2682442473	 0.146495
H	-0.3106575905	-4.4009960107	 2.7389581094	 0.135406
H	 0.167217479	-4.4319579644	 1.0089600969	 0.144645
34.3253	90.6497	101.2576	118.2632	189.0184	200.9888	212.966	248.2162	307.1916	319.9028	331.1426	351.8047	374.3873	439.2375	514.8835	654.071	745.8961	790.4599	806.0444	869.7537	941.7286	997.6511	1002.8224	1047.1878	1069.828	1137.1195	1163.4907	1180.6175	1203.9162	1213.6676	1248.5128	1305.9269	1355.9265	1389.7796	1404.3748	1422.8645	1471.9486	1477.6819	1480.5181	1484.4198	1494.5392	1498.1399	1503.9203	1509.8739	1825.4192	3022.727	3044.8246	3055.3103	3061.968	3066.9227	3109.3816	3126.1362	3132.2141	3134.6668	3151.5391	3162.1284	3808.9638
CCC(C)(O)C(=O)OC	CC[C@@](C)(O)C(=O)OC	
InChI=1S/C6H12O3/c1-4-6(2,8)5(7)9-3/h8H,4H2,1-3H3	InChI=1S/C6H12O3/c1-4-6(2,8)5(7)9-3/h8H,4H2,1-3H3/t6-/m1/s1
