15
gdb 27121	3.20652	1.32034	0.93985	1.8925	72.28	-0.2028	-0.0044	0.1983	1164.0853	0.115554	-450.188526	-450.180503	-450.179559	-450.221424	29.359	
N	-0.1023294885	 1.4446996606	 0.0090839731	-0.616084
C	-0.0046333536	 0.0304169177	-0.0142981298	 0.110959
C	-1.0867828027	-0.8142481291	 0.004118282	 0.426134
N	-2.4424428555	-0.5084417946	 0.0470857062	-0.401254
C	-3.4538668983	-1.4154732606	 0.0614015155	 0.142589
O	-3.3020167185	-2.6252528047	 0.0388915725	-0.34334
N	-0.5882654082	-2.0893988511	-0.0285739632	-0.305082
C	 0.7732678284	-1.9672516975	-0.065079203	-0.002458
N	 1.1549615336	-0.7100888596	-0.0579773894	-0.292044
H	 0.39611939	 1.8206958491	 0.8118444303	 0.244264
H	 0.3495887052	 1.8442991753	-0.8096599499	 0.244261
H	-2.6456266094	 0.4811266973	 0.0674879576	 0.273159
H	-4.4458102294	-0.9327086048	 0.0965915802	 0.096271
H	-1.1807643365	-2.9074407524	-0.0245835799	 0.290226
H	 1.4224388633	-2.8286548756	-0.0958197623	 0.1324
82.8792	140.6011	173.6162	225.8642	260.3489	284.7283	402.2928	466.1127	620.7455	623.935	630.7931	705.935	725.2009	725.4464	792.001	876.2232	905.4883	966.9655	1007.2212	1076.0819	1143.6744	1161.1145	1222.7969	1274.8612	1300.552	1382.4747	1421.9422	1469.4832	1515.2932	1536.8444	1647.3169	1694.926	1770.3009	2987.1779	3258.46	3479.0904	3537.6418	3611.1655	3614.7067
NC1=C(NC=O)NC=N1	Nc1c(NC=O)[nH]cn1	
InChI=1S/C4H6N4O/c5-3-4(8-2-9)7-1-6-3/h1-2H,5H2,(H,6,7)(H,8,9)	InChI=1S/C4H6N4O/c5-3-4(8-2-9)7-1-6-3/h1-2H,5H2,(H,6,7)(H,8,9)
