15
gdb 8020	3.37141	2.13202	1.58743	5.1998	60.75	-0.2383	0.0028	0.2411	819.0905	0.119033	-399.79434	-399.787329	-399.786385	-399.825415	26.462	
C	-0.1598359742	 1.5815677235	 0.0262731621	-0.480082
C	 0.0510944139	 0.0969079368	 0.0989715819	 0.436378
C	-1.1284558784	-0.8997406392	 0.1817637054	-0.220207
N	-0.3612970909	-1.7498480263	 1.1397880716	-0.31694
C	 0.727324192	-0.7370863686	 1.2177664035	-0.265289
C	 1.7759567193	-1.0440000013	 0.1389356267	 0.484366
O	 2.8034767612	-1.62632612	 0.0253710403	-0.323239
O	 1.0816387279	-0.3641651134	-0.8442974865	-0.291669
H	 0.7878146668	 2.1142512283	 0.1454956727	 0.137883
H	-0.585754111	 1.8592083975	-0.9438615785	 0.142113
H	-0.8493925069	 1.9119068267	 0.8086274263	 0.127039
H	-2.0278662038	-0.4425079991	 0.6101656829	 0.107234
H	-1.3886870432	-1.4039670237	-0.7533831828	 0.125809
H	-0.8330075608	-1.8865857707	 2.0247114828	 0.233456
H	 1.050679758	-0.3896075406	 2.1986093716	 0.103149
123.9479	203.02	211.0038	289.1905	316.4816	396.8288	464.1974	618.1292	660.5173	687.1636	799.1922	824.3491	847.5088	912.802	958.9838	977.1131	989.1094	1019.6531	1056.4281	1135.008	1139.8939	1202.9441	1230.1294	1245.3576	1285.599	1362.5873	1382.459	1417.9622	1482.276	1489.5273	1496.0768	1944.2671	3032.1843	3040.2856	3092.4015	3108.7874	3121.3078	3123.1412	3561.583
CC12CNC1C(=O)O2	C[C@]12CN[C@H]1C(=O)O2	
InChI=1S/C5H7NO2/c1-5-2-6-3(5)4(7)8-5/h3,6H,2H2,1H3	InChI=1S/C5H7NO2/c1-5-2-6-3(5)4(7)8-5/h3,6H,2H2,1H3/t3-,5-/m0/s1
