20
gdb 111589	3.26904	1.34547	1.2371	1.9568	77.35	-0.2034	0.0678	0.2712	1086.352	0.172993	-403.072357	-403.064717	-403.063773	-403.104641	30.316	
O	-0.1035369864	 1.4939222256	-0.2117421707	-0.422425
C	 0.0598273587	 0.102994857	 0.0343901208	-0.109767
C	-1.3112299485	-0.5353688549	-0.050784281	 0.040737
C	-2.0877609478	-0.588183431	-1.3984347302	-0.062243
C	-1.3123151082	-1.2723743246	-2.5418301794	-0.176665
N	-1.579496821	-2.6479079428	-1.9970961537	-0.147123
C	-0.6581122781	-2.9270523678	-0.8444365485	-0.175592
C	-1.4947132238	-2.0689811304	 0.1285887351	-0.097398
C	-2.5654524003	-2.0249838246	-1.0110713587	 0.004356
H	 0.7659151787	 1.9046479637	-0.2111548818	 0.287152
H	 0.7466885517	-0.347554285	-0.6980177572	 0.083008
H	 0.4876668173	-0.0817541603	 1.0342974563	 0.084588
H	-1.9595144266	-0.0342005754	 0.6775311225	 0.084891
H	-2.7345522771	 0.2551120431	-1.6383705338	 0.07245
H	-1.8159213901	-1.1604110155	-3.5076110989	 0.105295
H	-0.252460385	-1.029428078	-2.6792847482	 0.09553
H	-0.7054791342	-3.9921038993	-0.5933512927	 0.104807
H	 0.3914240155	-2.6640784743	-1.0187574584	 0.094628
H	-1.6577681574	-2.4431365065	 1.1405363101	 0.065457
H	-3.5898309073	-2.392789879	-0.9646811517	 0.068316
72.4814	156.8137	205.429	272.4576	306.7267	410.0783	448.6922	527.5756	599.6133	686.7405	756.888	803.6565	833.6574	856.5076	897.6481	911.1734	969.5885	977.346	982.4168	999.9216	1018.6383	1058.2104	1081.6865	1099.4898	1139.1921	1150.5111	1176.5495	1182.3776	1198.8778	1201.3336	1220.2689	1230.0896	1252.0478	1266.1331	1298.3205	1314.1905	1328.4095	1335.5049	1374.4973	1461.3561	1493.0988	1505.6031	1523.0209	2960.031	2994.7942	3026.4261	3033.0776	3041.2411	3072.0382	3075.9729	3089.545	3107.005	3121.1433	3829.0341
OCC1C2CN3CC1C23	OC[C@H]1[C@H]2CN3C[C@@H]1[C@@H]23	
InChI=1S/C7H11NO/c9-3-6-4-1-8-2-5(6)7(4)8/h4-7,9H,1-3H2	InChI=1S/C7H11NO/c9-3-6-4-1-8-2-5(6)7(4)8/h4-7,9H,1-3H2/t4-,5+,6+,7-
