18
gdb 84258	3.05252	1.46351	1.08823	3.0777	79.42	-0.2236	-0.0169	0.2066	1123.6526	0.148041	-401.927045	-401.91898	-401.918036	-401.959753	30.722	
C	-0.0725694593	 1.5923677799	-0.0277801765	-0.397602
C	 0.0261816446	 0.0664732367	-0.0300401788	-0.131586
C	 0.8550853971	-0.5356489852	-1.1582489664	-0.213365
C	 1.5167267759	-1.6016051234	-0.7133146932	 0.229965
C	 2.8536133608	-2.3071392958	-0.7248744911	-0.248522
N	 2.8815084943	-2.0894627585	 0.7708711993	-0.329923
C	 1.4076197236	-1.8262093522	 0.7601580824	-0.119831
C	 0.7777112066	-0.4949085223	 1.2300684081	 0.371982
O	 0.8681341612	 0.0494724748	 2.2928009314	-0.295529
H	 0.9184871542	 2.0488696016	-0.1132107361	 0.125916
H	-0.6874228091	 1.9480566627	-0.8598185863	 0.113788
H	-0.5187186059	 1.9380980477	 0.9079902399	 0.138077
H	-0.991521845	-0.3530605922	 0.0001435513	 0.106542
H	 0.9799424454	-0.0400176358	-2.1147215733	 0.103739
H	 2.8015441015	-3.3677607544	-1.0068396131	 0.107085
H	 3.6724185598	-1.8300342058	-1.2719667483	 0.122982
H	 3.1382349536	-2.9207924361	 1.2944762013	 0.223341
H	 0.7918711306	-2.6702540817	 1.1042642696	 0.092941
73.7132	166.5218	183.1173	227.6722	255.4941	316.5828	378.6591	493.857	549.5995	629.444	632.013	729.2601	776.2351	818.3784	868.4856	895.6944	921.3318	953.2916	970.7266	1016.3939	1040.0476	1054.8802	1095.0481	1111.1965	1120.5968	1155.1751	1201.3444	1236.2781	1249.4542	1298.2823	1325.6602	1335.2822	1372.9952	1404.6159	1491.0195	1497.8509	1501.5328	1728.2521	1863.4157	2982.2043	2992.7518	3007.2007	3042.293	3078.0422	3111.1251	3125.7136	3190.3445	3513.2652
CC1C=C2CNC2C1=O	C[C@H]1[CH][C]2CN[C@H]2C1=O	
InChI=1S/C7H9NO/c1-4-2-5-3-8-6(5)7(4)9/h2,4,6,8H,3H2,1H3	InChI=1S/C7H9NO/c1-4-2-5-3-8-6(5)7(4)9/h2,4,6,8H,3H2,1H3/t4-,6+/m0/s1
