20
gdb 89134	2.06922	1.65297	1.1344	4.3535	83.93	-0.2729	0.0319	0.3048	1164.0393	0.170614	-366.012267	-366.003224	-366.00228	-366.045568	34.332	
C	-0.2980541972	 1.5470275655	 0.0339198463	-0.427364
C	 0.0427681343	 0.0622318863	 0.0181775679	 0.034131
C	 1.1797816602	-0.4927001582	-0.9111310842	-0.326859
C	 1.7781507955	-1.2421016418	 0.2937185143	 0.334997
C	 2.333031564	-2.6366815184	 0.2538488807	-0.499833
C	 2.2158618223	-0.2347063621	 1.3409842194	-0.222516
C	 2.7991902923	 1.0405831046	 1.0183332355	 0.303229
N	 3.2965150446	 2.0511990254	 0.7508406682	-0.361865
C	 0.7432759383	-0.5990914455	 1.2144574576	-0.131015
H	 0.5805524425	 2.1710414635	 0.210195858	 0.152903
H	-0.7352979543	 1.8475189262	-0.9245939899	 0.115692
H	-1.0332390921	 1.7668261086	 0.8160514314	 0.114427
H	-0.8685811237	-0.5105331306	-0.1838493	 0.083405
H	 0.8077026425	-1.1613254661	-1.69028557	 0.106016
H	 1.8363308429	 0.2518315395	-1.3705957369	 0.122494
H	 3.2753288892	-2.6708422241	-0.3051302468	 0.133363
H	 2.5286022393	-3.0195249548	 1.260679752	 0.12225
H	 1.6316270229	-3.3214673235	-0.235557753	 0.125078
H	 2.6821820227	-0.6940888329	 2.2088509585	 0.128562
H	 0.2448041241	-1.0202089316	 2.081408661	 0.092906
131.9905	139.1797	162.4861	202.5864	212.4661	224.2208	310.1052	367.3749	392.5444	455.105	549.1281	569.5939	644.9695	714.2783	782.5747	847.7345	860.8767	892.7098	943.7006	961.5905	982.0671	1010.8874	1034.7655	1070.3368	1115.5084	1124.1634	1148.854	1188.9972	1237.5076	1245.0194	1255.3734	1301.0908	1333.6133	1376.6331	1414.0338	1416.6919	1449.7844	1483.7272	1491.3326	1495.7004	1498.2098	1503.3218	2342.9207	3025.3778	3034.1315	3044.7215	3060.0183	3087.8931	3093.061	3098.9534	3114.8779	3133.7794	3146.2565	3166.0727
CC1CC2(C)C(C#N)C12	C[C@H]1C[C@@]2(C)[C@@H](C#N)[C@@H]12	
InChI=1S/C8H11N/c1-5-3-8(2)6(4-9)7(5)8/h5-7H,3H2,1-2H3	InChI=1S/C8H11N/c1-5-3-8(2)6(4-9)7(5)8/h5-7H,3H2,1-2H3/t5-,6-,7+,8-/m0/s1
