21
gdb 113495	3.22269	0.98589	0.8758	2.9711	85.64	-0.2334	-0.0151	0.2182	1427.4355	0.181242	-387.097821	-387.088395	-387.087451	-387.132581	34.895	
C	-0.0607250687	 1.5570570541	-0.3981375932	-0.372963
C	-0.0590281161	 0.1457955439	 0.2023676717	-0.198714
C	-1.420947093	-0.5125879778	 0.1407984961	-0.041872
C	-1.855256603	-1.2767553553	-1.0690692449	-0.340368
C	-1.5467792193	-2.0253037522	 0.2117292075	 0.218921
C	-0.4838974682	-3.0984547192	 0.5136986837	-0.331565
C	-1.5281469042	-3.8534678207	 1.401870522	-0.343525
C	-2.5539706296	-2.7546274328	 1.0498360422	 0.345526
O	-3.7032469279	-2.5539876167	 1.3317591834	-0.319134
H	 0.9325541179	 2.0122825797	-0.3377004288	 0.113428
H	-0.3608660452	 1.5364617445	-1.4507435796	 0.12049
H	-0.7607940492	 2.2104408951	 0.1333381769	 0.119376
H	 0.6712502584	-0.4788685803	-0.3266765454	 0.098035
H	 0.2772046456	 0.1928769073	 1.2462446528	 0.101744
H	-2.2112572735	 0.0141337464	 0.6723979455	 0.103212
H	-2.8966844118	-1.239405788	-1.3715465233	 0.131167
H	-1.1429685656	-1.393726285	-1.880884294	 0.116598
H	-0.1458830366	-3.6644643065	-0.357176017	 0.109082
H	 0.3913631596	-2.73789385	 1.0590235208	 0.109845
H	-1.8136911215	-4.8513154925	 1.0577041897	 0.130542
H	-1.2908923283	-3.910306024	 2.467898484	 0.130174
68.5253	82.3948	124.0248	128.3304	222.5806	241.4567	273.2025	368.1041	408.0404	510.9366	533.5538	614.2096	721.3377	753.1131	777.9206	804.1001	852.6122	892.108	925.2035	940.8706	979.1472	1020.7674	1041.2883	1060.478	1072.372	1094.0977	1120.0633	1126.7826	1179.9644	1195.5951	1211.7588	1231.1597	1258.1498	1293.5307	1318.9767	1355.7523	1409.569	1424.2275	1439.8136	1476.4101	1488.1456	1493.8927	1497.9439	1507.8944	1873.7637	3019.5931	3034.7038	3052.47	3062.1394	3069.2009	3103.636	3107.4201	3108.0191	3119.8868	3123.8392	3129.9251	3211.0886
CCC1CC11CCC1=O	CC[C@H]1C[C@]21CCC2=O	
InChI=1S/C8H12O/c1-2-6-5-8(6)4-3-7(8)9/h6H,2-5H2,1H3	InChI=1S/C8H12O/c1-2-6-5-8(6)4-3-7(8)9/h6H,2-5H2,1H3/t6-,8-/m0/s1
