18
gdb 80919	2.86279	1.44499	1.27079	2.2686	72.49	-0.2441	0.0646	0.3087	1058.0021	0.146436	-438.982456	-438.974249	-438.973305	-439.014803	32.146	
C	 0.0690931528	 1.4251736529	-0.0269018076	-0.526678
C	-0.0219230803	-0.0600168697	 0.0994475526	 0.225006
O	 0.628062905	-0.9091266813	-0.9620347479	-0.377583
C	 0.0340600906	-1.8912344212	-0.005793064	-0.117016
C	 0.6340845921	-1.029813163	 1.143703264	 0.175033
O	 2.0146908633	-0.983700749	 1.2717039408	-0.459802
C	-1.2165154044	-1.0197238453	 0.0443413032	 0.436679
C	-2.5452715243	-1.0524122882	 0.6726116546	-0.343995
N	-2.3736645699	-1.0624673683	-0.8082503275	-0.386975
H	 1.1120792267	 1.7475690136	 0.0469979405	 0.14368
H	-0.3319637973	 1.7637987106	-0.9873557934	 0.135268
H	-0.4943283259	 1.9072801048	 0.7784769339	 0.13204
H	 0.1507236451	-2.9487434708	-0.2372479259	 0.103777
H	 0.1821187337	-1.099610804	 2.1352259298	 0.093854
H	 2.3440899279	-0.9472553429	 0.360732458	 0.286179
H	-2.9453240574	-1.9738826096	 1.086308646	 0.127716
H	-2.9108907305	-0.1455614663	 1.1491487802	 0.116454
H	-2.5765860773	-0.1458115724	-1.2004814371	 0.236361
152.0528	166.6035	179.6111	217.6621	249.624	328.039	349.2965	482.7727	503.9239	596.4928	613.754	639.9695	740.6567	751.3205	771.2698	846.9539	888.5943	920.9393	925.969	952.4784	971.2902	1053.9208	1086.4591	1103.341	1106.7843	1147.5675	1164.2309	1189.0764	1219.9085	1232.5188	1253.5035	1306.0433	1330.7339	1408.6642	1438.8218	1469.7755	1477.6061	1486.3844	1536.9275	3037.6837	3101.8707	3103.9523	3110.8206	3113.8989	3141.2602	3189.037	3493.9552	3723.7525
CC12OC(C1O)C21CN1	C[C@@]12O[C@@H]([C@H]1O)[C@]12CN1	
InChI=1S/C6H9NO2/c1-5-3(8)4(9-5)6(5)2-7-6/h3-4,7-8H,2H2,1H3	InChI=1S/C6H9NO2/c1-5-3(8)4(9-5)6(5)2-7-6/h3-4,7-8H,2H2,1H3/t3-,4+,5-,6+/m1/s1
