18
gdb 64962	2.80026	1.32653	1.16115	2.0732	73.12	-0.2451	-0.0085	0.2366	1137.1654	0.145755	-439.058871	-439.049772	-439.048828	-439.093494	32.709	
C	-0.0677623744	 1.4950623405	-0.1701929361	-0.471997
C	-0.0739912868	-0.007874667	-0.0346919086	 0.314394
C	 0.799849994	-0.8604629005	-0.8435181993	-0.212265
O	 1.1154378135	-0.5993646794	 0.5333208556	-0.278468
C	-1.3239865134	-0.6744445297	 0.5272668447	 0.32041
O	-1.8483986773	-1.6396933535	 0.0185443648	-0.33864
N	-1.8231406045	-0.0508393017	 1.6654821469	-0.088398
C	-1.1073923557	 0.0082071632	 2.9341184744	-0.232914
C	-2.360024156	-0.8021216999	 2.7756628397	-0.22141
H	 0.9056599706	 1.8314351233	-0.5357775685	 0.129269
H	-0.8402816226	 1.8191350656	-0.8752624099	 0.134697
H	-0.2669525296	 1.9783872236	 0.789697746	 0.137243
H	 0.4850741317	-1.8759416653	-1.0672401196	 0.138812
H	 1.4706336346	-0.3947468646	-1.5635243853	 0.113334
H	-0.1623358617	-0.5229867897	 2.9954310684	 0.155636
H	-1.1409057459	 0.9622619321	 3.4527298023	 0.127734
H	-3.2929005776	-0.4322603028	 3.1904917293	 0.129483
H	-2.2702651588	-1.883417744	 2.7217697253	 0.14308
35.2076	93.4084	169.2709	172.9443	192.7877	280.7089	305.6231	328.9276	363.6799	492.7593	544.3211	679.1768	779.2177	793.2269	819.1853	857.8559	930.6172	933.5587	966.9684	1021.2886	1048.7253	1099.9588	1116.8132	1130.0467	1136.9735	1138.6966	1166.4507	1176.1693	1180.1038	1276.454	1381.699	1403.4955	1420.3805	1479.9527	1493.0189	1497.0576	1520.9137	1522.8999	1788.148	3044.5592	3098.4482	3114.6087	3116.0982	3120.1326	3129.1916	3198.3684	3202.9277	3215.8084
CC1(CO1)C(=O)N1CC1	C[C@]1(CO1)C(=O)N1CC1	
InChI=1S/C6H9NO2/c1-6(4-9-6)5(8)7-2-3-7/h2-4H2,1H3	InChI=1S/C6H9NO2/c1-6(4-9-6)5(8)7-2-3-7/h2-4H2,1H3/t6-/m0/s1
