22
gdb 60547	3.03349	1.09241	1.06122	2.589	81.85	-0.2359	0.0655	0.3014	1282.8715	0.193827	-404.307597	-404.297982	-404.297038	-404.341745	36.786	
C	-0.0296101789	 1.5380037132	 0.3113190126	-0.470554
C	-0.0235733653	 0.0402679442	 0.0647273432	 0.352152
C	 0.9933621036	-0.5273945947	-0.8926743336	-0.305547
C	 1.1481495995	-0.7653160778	 0.5904321521	-0.333516
C	-1.3829160135	-0.6485746162	 0.1109244573	 0.03152
O	-1.9884726262	-0.516629661	 1.3950296609	-0.448175
C	-2.3602125784	-0.0927405222	-0.9109157306	 0.017712
C	-3.8197619509	-0.2867385201	-0.7531695402	-0.252507
N	-3.2201642632	 1.0521270205	-0.5791256807	-0.32478
H	 0.9892601624	 1.9368237671	 0.3049080858	 0.108864
H	-0.6067782127	 2.0651533184	-0.4546244055	 0.143181
H	-0.4761668315	 1.7719575256	 1.283286686	 0.116079
H	 0.7077845717	-1.3705465725	-1.513559456	 0.112578
H	 1.6755143347	 0.1647427352	-1.3742401222	 0.114701
H	 1.9364670858	-0.23624125	 1.1151312417	 0.113571
H	 0.9668220019	-1.7703858566	 0.9602817576	 0.107647
H	-1.2267965663	-1.7168947759	-0.1194606383	 0.065327
H	-1.3208825848	-0.7376187042	 2.0520388533	 0.287834
H	-1.9456686388	-0.057989215	-1.9163512083	 0.089889
H	-4.4499777122	-0.3977360961	-1.6311043577	 0.109974
H	-4.1617635724	-0.8090094805	 0.1347304766	 0.123457
H	-3.1317277645	 1.2238057185	 0.4205390859	 0.240591
79.2831	100.2974	158.8064	224.5405	248.8438	272.3013	292.1357	307.3341	321.5529	344.322	447.2576	510.023	648.2752	768.0866	778.4422	798.6327	855.9506	874.9627	911.8523	935.6271	956.8425	964.9953	996.7173	1004.8243	1046.3512	1067.7545	1081.3595	1086.4053	1125.9528	1132.356	1151.8917	1186.168	1196.9716	1238.0769	1276.1127	1293.5803	1318.1319	1329.1896	1385.4974	1392.4087	1422.6428	1442.3461	1467.0896	1489.4221	1501.5245	1502.8567	1512.0515	2946.3597	3035.6007	3101.9419	3109.5527	3114.4238	3121.2071	3129.031	3130.2786	3201.3482	3205.6145	3216.433	3496.8316	3823.7536
CC1(CC1)C(O)C1CN1	CC1(CC1)[C@@H](O)[C@H]1CN1	
InChI=1S/C7H13NO/c1-7(2-3-7)6(9)5-4-8-5/h5-6,8-9H,2-4H2,1H3	InChI=1S/C7H13NO/c1-7(2-3-7)6(9)5-4-8-5/h5-6,8-9H,2-4H2,1H3/t5-,6+/m1/s1
