18
gdb 94870	2.86767	1.77935	1.39615	1.344	71.44	-0.2362	0.0367	0.2729	954.7989	0.149472	-438.965588	-438.958476	-438.957531	-438.997033	28.927	
O	 0.3197106757	 1.4423943077	 0.2188030484	-0.414483
C	 0.0948492156	 0.0622435536	-0.0207614657	-0.000428
C	 0.7166377188	-0.7437086454	 1.1964740713	-0.100808
O	-0.3177004671	-1.4745000104	 1.9073115064	-0.319869
C	-1.4965105182	-0.9123443649	 1.4291747484	 0.372359
C	-2.9607444421	-1.2698402382	 1.0729790966	-0.240159
N	-2.7447621491	 0.1245602245	 0.4180323512	-0.18562
C	-2.0590364137	 0.4977845015	 1.74516094	-0.244056
C	-1.3490263805	-0.4822769994	 0.0009712838	-0.011676
H	-0.1011124325	 1.9356543906	-0.4935043668	 0.293706
H	 0.5890762454	-0.2358518737	-0.954696043	 0.082919
H	 1.4631822769	-1.4714132316	 0.8693086892	 0.114987
H	 1.1895823408	-0.0171608583	 1.865791726	 0.127483
H	-3.136590855	-2.0722026425	 0.3530134359	 0.110573
H	-3.7162012087	-1.2454841672	 1.861318878	 0.110126
H	-2.7620823171	 0.5887008026	 2.5763933649	 0.096792
H	-1.3971964956	 1.3563377856	 1.6681404774	 0.131635
H	-1.4827094734	-1.2471522544	-0.7684531521	 0.076518
87.8013	217.9871	282.8517	352.9441	407.6294	423.1765	462.0712	538.6231	603.8748	690.8509	720.6733	782.9608	826.1332	852.3757	879.3546	911.7994	955.3613	964.2436	985.8169	1002.6391	1058.5038	1067.2738	1085.217	1144.3236	1162.4865	1169.4152	1186.9797	1211.2832	1227.3964	1239.4583	1250.6369	1282.6111	1323.4505	1373.6415	1393.385	1414.336	1501.5847	1508.5661	1550.5546	3008.1364	3048.7916	3062.2209	3071.1534	3077.8247	3107.7755	3138.2605	3182.8783	3813.4407
OC1COC23CN(C2)C13	O[C@H]1CO[C@@]23CN(C2)[C@@H]13	
InChI=1S/C6H9NO2/c8-4-1-9-6-2-7(3-6)5(4)6/h4-5,8H,1-3H2	InChI=1S/C6H9NO2/c8-4-1-9-6-2-7(3-6)5(4)6/h4-5,8H,1-3H2/t4-,5-/m0/s1
