16
gdb 131784	4.88689	0.87247	0.78801	2.8626	73.47	-0.2388	-0.0736	0.1652	1399.5481	0.125492	-434.069534	-434.061386	-434.060442	-434.103486	28.947	
O	 0.1244673127	 1.4226134124	 0.2124351607	-0.408174
C	 0.0583139938	 0.0121759492	 0.2441404335	-0.05933
C	-1.339360092	-0.5151801405	-0.1474310564	-0.314559
C	-1.396883902	-2.0135980311	-0.0936484776	 0.312089
C	-2.0078540077	-2.7144200431	 0.9564286961	-0.023921
N	-2.0295300014	-4.0407350931	 1.0125972135	-0.16642
N	-1.4419630228	-4.7265380266	 0.0330352807	-0.184287
C	-0.867808588	-4.0314934685	-0.9473214372	 0.098825
N	-0.8102234918	-2.7024915753	-1.0714582425	-0.286033
H	 0.0750519858	 1.7043731815	-0.7067163015	 0.287454
H	 0.8124876282	-0.4544433804	-0.4051950822	 0.115134
H	 0.2864767171	-0.2774985307	 1.275265753	 0.121234
H	-2.0853415248	-0.0731866447	 0.5194299789	 0.121961
H	-1.5611231635	-0.1947456388	-1.1716975396	 0.120831
H	-2.5001583865	-2.1955866166	 1.7740917859	 0.127908
H	-0.399621817	-4.6234100838	-1.7290676152	 0.137289
44.704	98.9495	100.791	243.129	305.17	343.552	361.8331	371.7723	533.2275	635.1252	701.7692	788.2921	826.096	883.084	934.3546	1001.9583	1012.5517	1026.5919	1034.2421	1071.9424	1087.1761	1141.1541	1178.6442	1252.6751	1281.5208	1308.4634	1331.6561	1345.9943	1394.7813	1413.7744	1478.8043	1483.2719	1511.3252	1557.8014	1593.0624	3008.8506	3043.7397	3076.0179	3106.1478	3174.26	3179.4996	3816.937
OCCC1=CN=NC=N1	OCCc1cnncn1	
InChI=1S/C5H7N3O/c9-2-1-5-3-7-8-4-6-5/h3-4,9H,1-2H2	InChI=1S/C5H7N3O/c9-2-1-5-3-7-8-4-6-5/h3-4,9H,1-2H2
