21
gdb 53583	4.55692	0.64861	0.61383	1.6155	89.09	-0.2418	0.059	0.3008	1918.161	0.178393	-387.06133	-387.050195	-387.049251	-387.099665	38.689	
C	-0.0708822917	 1.4637054254	-0.3593250045	-0.496512
C	-0.0118202853	 0.0450623126	-0.037139661	 0.089495
C	 0.0445867264	-1.1287817882	 0.2231724473	 0.048349
C	 0.0806840063	-2.5532103442	 0.5434466956	-0.392694
C	-1.2938285668	-3.200316948	 0.4560418103	 0.021821
O	-1.7389127112	-3.6440142924	-0.8269496792	-0.290544
C	-1.5429007697	-4.6324141053	 0.2033005854	 0.394024
C	-0.4227970138	-5.6210789164	-0.0420201139	-0.454335
C	-2.82492184	-5.247563207	 0.7265086633	-0.451623
H	 0.6513163742	 1.7247382861	-1.1408604577	 0.14724
H	-1.0653062746	 1.7471695041	-0.721581561	 0.148642
H	 0.1511879572	 2.0832855758	 0.5167187398	 0.144616
H	 0.7739925723	-3.0683239156	-0.1286022349	 0.133022
H	 0.4667825387	-2.6931717305	 1.5631371005	 0.127431
H	-2.0550154401	-2.6602091094	 1.0231129794	 0.088789
H	 0.4562213189	-5.1464872207	-0.4798087135	 0.127292
H	-0.1276272588	-6.1105783807	 0.8925879011	 0.120111
H	-0.7597756444	-6.4017600488	-0.7327872517	 0.125079
H	-3.2014071346	-6.0001451658	 0.0248136112	 0.12419
H	-2.656573023	-5.7427583537	 1.6891234902	 0.118112
H	-3.5972547198	-4.4856685873	 0.8559703234	 0.127494
16.467	38.088	72.3224	147.2248	180.7085	202.3352	212.9289	238.8859	276.0262	362.5362	377.3817	393.7558	442.7206	470.8772	536.644	700.5415	765.2238	818.7767	882.5205	943.4967	956.4792	992.4219	1047.6315	1053.1489	1060.3223	1107.5497	1128.3178	1154.9971	1169.194	1233.1345	1265.7836	1322.6244	1356.7104	1409.2385	1415.3403	1420.0734	1451.9136	1465.0442	1474.16	1478.8975	1479.3363	1486.8933	1501.1397	1520.2791	2376.4468	3011.8573	3026.1347	3032.1703	3038.8121	3072.815	3085.7632	3087.0969	3089.4163	3092.699	3097.817	3123.9466	3140.5199
CC#CCC1OC1(C)C	CC#CC[C@H]1OC1(C)C	
InChI=1S/C8H12O/c1-4-5-6-7-8(2,3)9-7/h7H,6H2,1-3H3	InChI=1S/C8H12O/c1-4-5-6-7-8(2,3)9-7/h7H,6H2,1-3H3/t7-/m1/s1
