21
gdb 115603	2.62842	1.13698	0.99899	3.5268	74.68	-0.2451	0.0593	0.3044	1305.1139	0.180241	-461.327942	-461.31785	-461.316906	-461.363102	36.652	
C	 0.0247610415	 1.4077264585	-0.0256495721	-0.254748
O	-0.0612229095	 0.0596356182	 0.3871253478	-0.281872
C	-1.3052271902	-0.5707296034	 0.1733150975	 0.349833
C	-2.4379828261	 0.0492034516	 0.9845391829	-0.45822
C	-1.6694506182	-0.8987042938	-1.3012335835	-0.12601
O	-1.7553069917	-2.308241527	-0.9986322351	-0.306446
C	-1.1903135341	-2.1080908706	 0.3275669005	 0.050407
C	 0.1964841146	-2.7308992246	 0.392891358	-0.065137
O	 0.1054005815	-4.1084859424	 0.0754310984	-0.427184
H	 1.0732768368	 1.6990264997	 0.0697818688	 0.134112
H	-0.2796340477	 1.5369906795	-1.0750021689	 0.108944
H	-0.5817071346	 2.0785061774	 0.5976259423	 0.11463
H	-2.6633193852	 1.0688985498	 0.6576065699	 0.119632
H	-3.3494562841	-0.5442777854	 0.8695739093	 0.133309
H	-2.1715336163	 0.0758823704	 2.0458505836	 0.128265
H	-2.6186589314	-0.5070525361	-1.6834363474	 0.103278
H	-0.8654021871	-0.6761943284	-2.0139501707	 0.102686
H	-1.838246269	-2.5570248369	 1.0898802036	 0.080487
H	 0.8788872674	-2.1990596471	-0.2835929067	 0.093087
H	 0.6037840521	-2.6543162822	 1.4058080108	 0.111179
H	-0.3790920988	-4.1499813072	-0.7587165491	 0.289769
72.3019	98.2843	119.8866	138.7406	190.0643	249.6166	258.1642	307.0315	316.8484	369.3935	425.775	472.9201	496.7976	575.6022	655.2619	834.1661	876.2026	911.88	938.7226	940.5506	1015.9394	1046.1658	1069.1075	1092.2836	1112.0898	1159.313	1176.9323	1180.8224	1194.8617	1212.2774	1235.0818	1246.5109	1295.2357	1333.6089	1361.7783	1394.913	1404.7948	1431.5484	1475.8641	1485.6768	1489.714	1500.0839	1505.2291	1510.0549	1514.9718	2988.4071	3013.1047	3017.9279	3036.5085	3040.1638	3045.4882	3069.5744	3087.2686	3110.4682	3117.7605	3118.313	3778.5273
COC1(C)COC1CO	CO[C@@]1(C)CO[C@H]1CO	
InChI=1S/C6H12O3/c1-6(8-2)4-9-5(6)3-7/h5,7H,3-4H2,1-2H3	InChI=1S/C6H12O3/c1-6(8-2)4-9-5(6)3-7/h5,7H,3-4H2,1-2H3/t5-,6-/m0/s1
