17
gdb 19707	5.48884	1.81267	1.64312	0.3636	67.89	-0.215	0.0877	0.3027	822.3903	0.143658	-363.783056	-363.776768	-363.775824	-363.813107	25.448	
C	 0.0390374115	 1.5111201439	-0.1744268818	-0.325845
N	 0.0306871936	 0.0601432732	 0.0124830624	-0.110446
C	-1.0576303828	-0.5147201156	 0.8752177129	-0.068052
C	-0.1462694069	-1.7564470164	 1.1341996589	-0.053047
C	-0.404421427	-2.2194077745	 2.5558266993	-0.110826
O	-0.5556734039	-0.9566255601	 3.2381008354	-0.281565
C	-0.3778821662	-0.0240641588	 2.1987594777	 0.123954
C	 0.7522022831	-0.4813771051	 1.2147242808	-0.068049
H	 1.0100496979	 1.8033707024	-0.5877938141	 0.121438
H	-0.7257263366	 1.7713808388	-0.9137155345	 0.121438
H	-0.1413980868	 2.1162476131	 0.7271267357	 0.098697
H	-2.1102162023	-0.4997288925	 0.5866572541	 0.078434
H	 0.0170946329	-2.4750372159	 0.3339150612	 0.086772
H	-1.3204709503	-2.812864451	 2.6630293069	 0.107161
H	 0.4310469997	-2.7805948384	 2.9915923581	 0.107161
H	-0.4678986159	 0.9895638307	 2.579082841	 0.094344
H	 1.8365738101	-0.4270122037	 1.3270297659	 0.078433
192.3433	247.0471	254.1565	338.8469	436.4181	515.0205	657.6958	716.7915	774.924	785.5449	798.7486	892.2257	902.9235	952.4643	975.5268	982.0444	983.7352	1050.9908	1073.0372	1108.253	1137.8111	1140.1441	1147.4612	1164.5981	1176.2688	1198.5091	1222.8632	1227.4829	1275.1646	1291.2248	1332.0198	1391.8151	1448.3287	1493.9142	1500.0316	1522.4275	2985.1218	3023.0761	3060.7863	3064.9699	3097.1036	3097.8418	3101.2334	3151.8071	3167.9811
CN1C2C3COC2C13	CN1[C@H]2[C@@H]3CO[C@H]2[C@H]13	
InChI=1S/C6H9NO/c1-7-4-3-2-8-6(4)5(3)7/h3-6H,2H2,1H3	InChI=1S/C6H9NO/c1-7-4-3-2-8-6(4)5(3)7/h3-6H,2H2,1H3/t3-,4-,5+,6+
