21
gdb 64400	2.186	1.46171	1.12533	1.6485	78.5	-0.2531	-0.0285	0.2246	1177.9974	0.181297	-424.243909	-424.234433	-424.233488	-424.278576	35.116	
C	 0.199886317	 1.5077980809	-0.1089599693	-0.439111
C	-0.0130561636	-0.0154106111	-0.0283023838	 0.260627
C	-1.5058504675	-0.3453499044	 0.0220159594	-0.448325
C	 0.722732601	-0.6964588603	-1.198934244	-0.102556
O	 2.0909481102	-0.6946949145	-0.8335954986	-0.250969
C	 2.1586523424	-0.9906902786	 0.5575416613	-0.114096
C	 0.7681990866	-0.6756890511	 1.1662568231	-0.117491
C	 0.8281052265	 0.1913511469	 2.4006464321	 0.143673
O	 0.1326398511	 0.0428415825	 3.3731864565	-0.258232
H	 1.2612503873	 1.7611805459	-0.1820640737	 0.130572
H	-0.2996204542	 1.9045468064	-0.9990379683	 0.117536
H	-0.2213059784	 2.0249339084	 0.7589209962	 0.125087
H	-2.0298274279	 0.0873908575	-0.8372487167	 0.116901
H	-1.6761670536	-1.426974039	 0.0132101577	 0.116926
H	-1.9652115557	 0.0580249699	 0.9300061358	 0.135114
H	 0.3493505832	-1.7248728813	-1.3417320896	 0.083971
H	 0.6264132575	-0.1563769904	-2.1454701991	 0.109671
H	 2.4145012546	-2.0471691695	 0.7167024541	 0.106085
H	 2.9613515321	-0.3821866306	 0.9915499737	 0.109518
H	 0.2489801024	-1.5954217182	 1.4486510085	 0.095889
H	 1.578535399	 1.0143264107	 2.3556008447	 0.079209
52.1813	59.879	199.1389	223.7124	234.31	279.3142	286.5196	330.2981	347.8995	411.5419	440.2088	461.4744	588.2816	702.5057	774.1288	866.5089	933.5493	939.1212	954.8318	963.6382	996.4357	1001.7691	1050.5266	1066.1557	1098.5964	1137.7491	1186.801	1205.2816	1245.393	1248.3613	1267.9468	1314.7136	1319.9265	1363.1406	1393.7713	1404.3349	1426.0579	1432.01	1485.8228	1489.6703	1506.0855	1507.4832	1513.0632	1523.3557	1823.7363	2863.1585	2959.1754	3005.5838	3029.2719	3035.9181	3048.3219	3077.4775	3085.1054	3097.1042	3101.1595	3105.2428	3115.5839
CC1(C)COCC1C=O	CC1(C)COC[C@H]1C=O	
InChI=1S/C7H12O2/c1-7(2)5-9-4-6(7)3-8/h3,6H,4-5H2,1-2H3	InChI=1S/C7H12O2/c1-7(2)5-9-4-6(7)3-8/h3,6H,4-5H2,1-2H3/t6-/m1/s1
