20
gdb 126757	2.57197	1.30143	0.92796	2.9288	83.88	-0.202	0.0406	0.2427	1321.6732	0.171524	-399.362399	-399.352618	-399.351674	-399.397443	35.46	
C	-0.1590919251	 1.5049622851	-0.0559349197	-0.375211
C	 0.0487578518	-0.0118150435	-0.0515001777	-0.147489
N	 0.7830731948	-0.4871076155	-1.206866121	 0.006432
N	 0.1385935779	-0.6711557395	-2.3923229525	-0.342791
C	 1.0730825804	-1.1086011536	-3.2305522395	 0.371208
C	 0.7231504339	-1.4389949673	-4.6475531696	-0.49019
C	 2.3368251004	-1.1887072324	-2.5982810903	-0.393027
C	 2.1082395917	-0.772935331	-1.2995848897	 0.383503
N	 2.9465935306	-0.6999543885	-0.1782073852	-0.610138
H	 0.7958196155	 2.0401172211	-0.0215287461	 0.110368
H	-0.6860626016	 1.80773068	-0.9643032162	 0.146522
H	-0.7523685728	 1.8109436438	 0.8114514813	 0.117266
H	 0.5975464888	-0.3340247623	 0.8386874359	 0.125088
H	-0.9172946582	-0.523703699	-0.054220018	 0.131116
H	 1.2967022487	-0.8310681661	-5.3564229295	 0.121834
H	 0.9339736333	-2.4892715139	-4.8787926008	 0.123361
H	-0.3398717468	-1.2557200265	-4.8186637307	 0.135021
H	 3.279462311	-1.4942111259	-3.024487748	 0.084462
H	 3.8845582268	-1.0020695539	-0.4066508842	 0.25282
H	 2.995267049	 0.2289963487	 0.2255725415	 0.249849
52.2059	99.3251	107.5845	187.6706	201.7389	211.8096	271.1949	303.2242	331.7119	419.2005	501.3517	600.5605	647.9766	661.4765	686.8364	740.9934	785.2921	799.2622	822.2456	971.9893	992.008	1029.5557	1063.3181	1087.5556	1099.2141	1112.5955	1184.9682	1230.6343	1280.9467	1347.5032	1393.756	1402.9434	1409.0313	1429.9681	1478.9297	1483.2502	1488.5376	1490.8035	1498.9238	1506.2005	1551.6621	1597.4088	1657.869	3030.7819	3037.5933	3059.5901	3080.1686	3097.5115	3113.1332	3129.0125	3131.1362	3251.0835	3520.5665	3618.3651
CCN1N=C(C)C=C1N	CCn1nc(C)cc1N	
InChI=1S/C6H11N3/c1-3-9-6(7)4-5(2)8-9/h4H,3,7H2,1-2H3	InChI=1S/C6H11N3/c1-3-9-6(7)4-5(2)8-9/h4H,3,7H2,1-2H3
