16
gdb 117446	5.70402	0.60068	0.54898	3.7124	67.5	-0.2801	-0.0094	0.2707	1885.8579	0.121644	-475.054552	-475.044496	-475.043552	-475.09215	33.109	
O	-0.2739461697	 1.4456235572	 0.0127010815	-0.420045
C	-0.022127945	 0.0510182829	 0.0033385383	-0.069788
C	-1.381291265	-0.6366236932	 0.0110898138	-0.313807
C	-1.2628834997	-2.1386382909	 0.0018688745	 0.458219
O	-0.2410480322	-2.7761142822	-0.0111230388	-0.347039
O	-2.4907295344	-2.7204700031	 0.0106631201	-0.239152
C	-2.4597741009	-4.1510550582	 0.0027561336	-0.203383
C	-3.8390800792	-4.6335333197	 0.0141067172	 0.269089
N	-4.9150283114	-5.051354079	 0.0229309486	-0.287359
H	 0.5714160723	 1.9035877953	 0.0083233487	 0.291725
H	 0.5431770388	-0.2584910799	-0.8873351657	 0.106111
H	 0.5579485434	-0.2676757599	 0.8811930814	 0.106071
H	-1.9581774955	-0.3318090968	 0.8912394596	 0.151543
H	-1.9727557417	-0.322377703	-0.8559897879	 0.151555
H	-1.938090902	-4.5186071739	-0.8867742829	 0.173115
H	-1.9202612279	-4.5279960955	 0.8776061478	 0.173143
22.0804	43.711	81.2807	90.0028	172.1272	190.5145	268.7321	287.3372	345.7878	375.7759	412.6756	562.3794	586.0765	725.7684	806.1984	923.1896	982.1394	1016.1212	1017.9684	1058.3031	1082.6665	1092.6288	1186.9312	1210.848	1247.1313	1260.4687	1301.2279	1353.2312	1397.2895	1456.9632	1470.8033	1483.6276	1524.9599	1821.3088	2377.2439	2995.2835	3025.2725	3055.6528	3057.8709	3092.9819	3096.8206	3836.1698
OCCC(=O)OCC#N	OCCC(=O)OCC#N	
InChI=1S/C5H7NO3/c6-2-4-9-5(8)1-3-7/h7H,1,3-4H2	InChI=1S/C5H7NO3/c6-2-4-9-5(8)1-3-7/h7H,1,3-4H2
