14
gdb 25206	2.50095	1.85293	1.2111	2.2819	75.27	-0.2416	-0.0788	0.1628	985.1838	0.101991	-432.853948	-432.846483	-432.845539	-432.88671	27.409	
N	-0.1659225355	 1.3883729306	-0.2077846293	-0.469045
C	-0.0322285	 0.1674686922	 0.0668909398	 0.365658
O	 1.1900990383	-0.3449451691	 0.4547136273	-0.235756
C	 1.4284751677	-1.6030424313	 0.9095082611	 0.045136
C	 0.604121998	-2.4672654792	 1.5234339872	-0.067581
N	-0.732425361	-2.3232654401	 1.8719876659	-0.199728
C	-1.523456061	-1.555125441	 1.2295882992	-0.078658
C	-1.2057318998	-0.7701338416	 0.0014091118	 0.204285
N	-1.9015425587	-0.8014231576	-1.0633988889	-0.428943
H	 0.715247583	 1.8891241244	-0.0763909596	 0.235579
H	 2.4784383946	-1.8447156422	 0.7913257202	 0.137556
H	 1.0579035377	-3.391791566	 1.8649699438	 0.123421
H	-2.5589740623	-1.4899495421	 1.5718283564	 0.134386
H	-2.701677951	-1.432210987	-0.9462400549	 0.23369
56.6449	73.5943	249.7006	314.6498	346.7724	400.9063	423.9289	523.184	612.2137	662.408	723.6079	793.4989	837.7416	880.4844	894.1937	908.5392	935.0969	944.096	956.0705	1021.1078	1094.7438	1178.9499	1250.9312	1337.4048	1366.3752	1388.8122	1436.9855	1643.7558	1677.0525	1701.0403	1754.0327	3102.6553	3182.0233	3210.8433	3411.2887	3473.3237
N=C1OC=CN=CC1=N	[NH][C]1OC=CN=C[C]1[NH]	
InChI=1S/C5H5N3O/c6-4-3-8-1-2-9-5(4)7/h1-3,6-7H	InChI=1S/C5H5N3O/c6-4-3-8-1-2-9-5(4)7/h1-3,6-7H
