14
gdb 127360	3.52477	1.6695	1.14108	6.7404	69.96	-0.2301	-0.0341	0.196	989.7095	0.103634	-432.857036	-432.850226	-432.849282	-432.888504	25.448	
C	 0.0154522149	 1.4735645665	 0.003847841	-0.352415
N	-0.0023055163	 0.0276075925	 0.0245368172	-0.185985
C	-0.066210196	-0.8253013169	-1.0657525522	 0.017381
N	-0.0702757731	-2.1050177791	-0.8007169136	-0.346028
C	-0.0039799679	-2.1332467047	 0.5821154051	 0.409691
N	 0.0289146082	-3.0642490137	 1.5113578131	-0.251666
O	 0.0960342865	-2.3289925654	 2.6979256581	-0.171523
C	 0.1020935196	-0.9910052729	 2.4603505966	-0.055122
C	 0.0393785664	-0.8134491572	 1.1189766285	 0.194686
H	 0.9336295216	 1.8610823579	 0.4577565225	 0.149149
H	-0.0296729867	 1.8129354037	-1.0329607245	 0.150291
H	-0.844911684	 1.8842268608	 0.542739067	 0.149145
H	-0.1089313468	-0.4084768273	-2.064447356	 0.14193
H	 0.1524910835	-0.3612096542	 3.3322920774	 0.150467
108.3657	148.3296	258.5305	284.8876	354.4471	558.1404	575.0992	607.3225	613.5338	727.3839	752.9381	786.4271	812.7105	901.2808	904.4065	970.083	1058.3733	1091.0252	1116.7593	1154.4783	1248.9775	1287.1832	1329.4446	1380.7716	1421.5583	1461.1852	1479.1697	1518.8871	1544.2881	1557.2375	1711.1326	3032.9509	3091.4991	3134.9122	3224.5181	3281.8434
CN1C=NC2=NOC=C12	Cn1cnc2nocc12	
InChI=1S/C5H5N3O/c1-8-3-6-5-4(8)2-9-7-5/h2-3H,1H3	InChI=1S/C5H5N3O/c1-8-3-6-5-4(8)2-9-7-5/h2-3H,1H3
