27
gdb 117840	2.4219	0.94766	0.84897	0.9783	92.3	-0.2453	0.0739	0.3192	1605.1856	0.248695	-390.697102	-390.684871	-390.683927	-390.734624	44.291	
C	-0.0775445875	 1.6454166072	 0.1416181019	-0.382821
C	-0.0063915753	 0.1208211039	 0.0118083427	-0.177371
C	 0.8095923558	-0.5257892829	 1.1378972061	-0.203583
C	 0.8039902413	-2.0729839616	 1.1730745598	 0.361749
C	 1.4087995528	-2.6554500873	-0.1095280775	-0.416307
C	 1.5929378057	-2.5447593762	 2.4190695139	-0.205261
C	 1.6035484388	-4.0583985149	 2.6554430222	-0.395749
O	-0.5380647076	-2.5933480176	 1.1759331522	-0.276426
C	-1.3831261964	-2.2342490156	 2.2456668049	-0.244595
H	 0.9220093731	 2.0943771903	 0.1181202881	 0.111671
H	-0.6594024506	 2.0880343452	-0.6730163564	 0.110391
H	-0.5479696935	 1.9427821705	 1.085834819	 0.110723
H	-1.0174917027	-0.3011031106	 0.0094948932	 0.109203
H	 0.429784424	-0.1356898045	-0.9602997111	 0.097327
H	 1.8540744452	-0.1948170775	 1.0714667799	 0.091404
H	 0.4464576187	-0.1476792007	 2.1025992791	 0.088134
H	 2.4455074751	-2.3279579283	-0.2339382713	 0.106
H	 1.3879779103	-3.7468613668	-0.0812847127	 0.121223
H	 0.8351377795	-2.3392423565	-0.983140542	 0.122362
H	 2.6214067258	-2.1763900109	 2.3218538791	 0.09406
H	 1.1866555607	-2.0429996836	 3.305771797	 0.091859
H	 2.1623759824	-4.5895570936	 1.8796052382	 0.117435
H	 2.073907495	-4.2933516011	 3.6152869407	 0.107437
H	 0.5878474872	-4.4633022095	 2.6652115082	 0.127908
H	-1.0055743206	-2.5702855228	 3.2213657795	 0.105104
H	-1.5654070125	-1.151943154	 2.3018997044	 0.104514
H	-2.3394699047	-2.7315613707	 2.0611707508	 0.123607
61.273	87.9555	93.1671	100.1002	141.065	184.5744	201.5696	240.4045	265.4375	276.4651	302.2505	323.7326	343.7917	378.0502	413.1921	503.6929	590.6682	731.9399	742.2784	781.9895	845.5088	879.3422	896.9547	939.8479	988.6691	1006.0616	1047.5975	1060.7801	1097.1313	1106.5448	1120.4483	1178.4734	1183.2141	1195.8748	1211.3843	1253.2865	1268.5347	1307.5692	1319.0282	1352.3021	1370.7959	1389.7404	1409.3189	1411.4859	1415.8207	1467.3826	1470.5919	1484.1159	1490.7228	1492.4812	1498.8854	1499.1816	1501.3954	1505.6811	1509.3025	1515.2847	1516.6518	2990.4214	3015.125	3026.6959	3029.439	3037.6854	3039.5362	3043.2454	3045.9531	3051.7754	3059.0362	3071.3523	3096.7307	3099.8105	3101.7908	3106.4031	3119.0252	3125.7916	3133.881
CCCC(C)(CC)OC	CCC[C@@](C)(CC)OC	
InChI=1S/C8H18O/c1-5-7-8(3,6-2)9-4/h5-7H2,1-4H3	InChI=1S/C8H18O/c1-5-7-8(3,6-2)9-4/h5-7H2,1-4H3/t8-/m1/s1
