15
gdb 10386	2.70593	2.03315	1.4501	2.026	62.42	-0.2409	-0.0556	0.1853	879.6607	0.117437	-399.788339	-399.7804	-399.779456	-399.821295	27.572	
O	-0.0753638977	-0.0794174692	 0.2285034942	-0.252009
C	-0.0011188637	 1.072419223	-0.1153906225	 0.105919
C	 1.2907085223	 1.8714387304	-0.0414676716	 0.156876
C	 1.3177222354	 2.7862395692	 1.2383514408	-0.28538
C	 2.3188823085	 1.751742083	 1.8072488761	-0.148818
N	 2.4542772866	 1.1307997463	 0.4610101188	-0.357457
C	 1.516192436	 2.609932231	-1.3509067345	 0.091035
O	 0.7065835458	 3.3578315202	-1.8370018944	-0.255244
H	-0.8709435583	 1.6360463908	-0.5089628714	 0.115265
H	 1.738863682	 3.7731109095	 1.0416765843	 0.13259
H	 0.3674990216	 2.901744423	 1.7615765452	 0.12774
H	 3.2575843511	 2.1503424519	 2.2026949226	 0.114968
H	 1.8672887939	 1.0948369061	 2.5584103543	 0.116586
H	 2.2920475133	 0.1269306757	 0.4588026466	 0.234663
H	 2.5087073731	 2.4078908491	-1.8087763084	 0.103262
63.1748	109.9323	134.8381	208.2385	239.8862	302.249	339.7987	468.1405	657.5773	678.3534	778.8877	800.2433	882.4693	935.1436	964.9806	971.0304	997.744	1032.1028	1117.3665	1155.7828	1185.7932	1208.2794	1221.2306	1251.4925	1324.5384	1380.2527	1393.2263	1410.6281	1489.1205	1521.1385	1799.6405	1827.9297	2905.7304	2938.5944	3038.8961	3083.1454	3086.3068	3141.2178	3503.9309
O=CC1(CCN1)C=O	O=CC1(CCN1)C=O	
InChI=1S/C5H7NO2/c7-3-5(4-8)1-2-6-5/h3-4,6H,1-2H2	InChI=1S/C5H7NO2/c7-3-5(4-8)1-2-6-5/h3-4,6H,1-2H2
