17
gdb 131286	4.56862	1.06387	0.90492	2.2985	75.46	-0.2137	0.0247	0.2384	1265.3032	0.137709	-418.012454	-418.004677	-418.003733	-418.045345	29.797	
O	-0.3824577646	 1.1949926056	-0.0127072216	-0.429064
C	-0.1369944243	-0.1289446864	 0.080228565	 0.44031
N	-0.2890156792	-0.937883301	-0.9570833878	-0.373824
N	 0.027519737	-2.1722355801	-0.4691762357	 0.033388
C	 0.3867819139	-2.1173422736	 0.8370588799	-0.004175
C	 0.2871541356	-0.8047325302	 1.2447792735	-0.338743
C	 0.1012171757	-3.2946330129	-1.3498973436	 0.046358
C	-0.5619696155	-4.5814754017	-0.9325056921	-0.282566
C	-1.1532922606	-3.7473162132	-2.040639977	-0.252417
H	-0.6544505882	 1.366126488	-0.9231060012	 0.301928
H	 0.6801748089	-3.0083721671	 1.3695158066	 0.131856
H	 0.4747576678	-0.393278125	 2.221797674	 0.110325
H	 1.0314232243	-3.362700846	-1.907913272	 0.109617
H	-0.0590886195	-5.5084378878	-1.1825049329	 0.122203
H	-1.0814042441	-4.5901512823	 0.0184296523	 0.127151
H	-2.0546374803	-3.1873222298	-1.8250492878	 0.135768
H	-1.064390867	-4.0955587964	-3.0628095996	 0.121885
52.7135	110.4317	181.5182	310.9419	360.2476	389.9688	418.6369	515.1118	594.879	636.575	716.2122	722.0094	762.5207	784.1448	834.7905	839.6267	900.0531	968.2818	1000.7783	1035.1956	1061.7199	1065.1158	1080.5589	1101.7668	1128.2971	1195.3371	1201.6518	1225.2419	1275.0464	1308.2666	1391.8678	1437.3209	1464.0352	1470.8159	1502.0139	1562.8817	1601.4798	3132.7575	3144.5064	3152.2475	3228.5445	3244.8621	3257.9793	3284.2283	3793.958
OC1=NN(C=C1)C1CC1	Oc1nn(cc1)C1CC1	
InChI=1S/C6H8N2O/c9-6-3-4-8(7-6)5-1-2-5/h3-5H,1-2H2,(H,7,9)	InChI=1S/C6H8N2O/c9-6-3-4-8(7-6)5-1-2-5/h3-5H,1-2H2,(H,7,9)
