19
gdb 60294	3.59604	0.72768	0.631	3.0682	79.48	-0.24	-0.0158	0.2242	1757.2656	0.157371	-456.370046	-456.35978	-456.358836	-456.406181	36.041	
C	 0.1481902929	 1.5388248168	 0.1194164936	-0.401791
C	-0.1879525569	 0.0466945351	 0.141327015	 0.107877
O	 0.6843738077	-0.6634811923	 1.0206078965	-0.42066
C	-1.6696544088	-0.185931831	 0.4743052739	-0.136018
N	-2.2256789058	-1.5243846603	 0.3764361353	-0.277923
C	-1.4733888534	-2.5364877895	 0.2551695519	 0.110812
N	-2.0550579685	-3.7975204199	 0.1479336996	-0.304471
C	-1.3509301615	-4.9698527139	 0.0123911572	 0.15794
O	-0.1466883499	-5.0562872438	-0.0294489329	-0.295758
H	 1.2145363647	 1.6771914362	-0.075711794	 0.129215
H	-0.4195577872	 2.065661838	-0.6540437671	 0.11946
H	-0.0858623208	 2.0064609255	 1.0840357473	 0.108875
H	 0.0200040051	-0.3809621354	-0.847481621	 0.097625
H	 0.5059101075	-0.365326922	 1.919687993	 0.279839
H	-1.8640890674	 0.1838816336	 1.4943478606	 0.099467
H	-2.2725612333	 0.4586879265	-0.1793128566	 0.111553
H	-0.3850669577	-2.5587933802	 0.2396629392	 0.16825
H	-3.0652577528	-3.8242288606	 0.1693481772	 0.259446
H	-2.028430464	-5.8425970429	-0.0560577387	 0.086262
42.3235	89.7592	93.3472	169.5256	201.2425	226.0342	237.3865	289.4511	319.9877	345.8618	377.0433	439.2196	456.3262	624.1171	664.7705	784.8869	847.853	904.8362	932.4693	1021.8661	1033.0455	1054.6575	1072.5401	1092.6248	1102.6644	1156.7807	1230.5419	1241.9287	1320.4134	1340.0515	1364.3612	1393.6563	1404.7716	1423.2866	1439.1436	1466.7919	1491.9917	1496.7048	1506.1458	1744.9162	1820.0321	2950.7502	2980.3508	3025.1101	3031.0395	3042.0454	3097.016	3123.5753	3161.707	3603.9288	3797.2018
CC(O)CN=CNC=O	C[C@@H](O)CN=CNC=O	
InChI=1S/C5H10N2O2/c1-5(9)2-6-3-7-4-8/h3-5,9H,2H2,1H3,(H,6,7,8)	InChI=1S/C5H10N2O2/c1-5(9)2-6-3-7-4-8/h3-5,9H,2H2,1H3,(H,6,7,8)/t5-/m1/s1
