21
gdb 76507	2.97306	1.29167	1.15239	1.1631	83.57	-0.2127	0.0813	0.294	1181.4016	0.181914	-383.189245	-383.180273	-383.179329	-383.222588	34.441	
C	-0.1351168408	 1.521566388	 0.3852898006	-0.416987
C	 0.0286089656	 0.0250077806	 0.2322961	-0.063889
N	 1.2820965524	-0.6101399682	-0.2164407956	-0.169736
C	 2.4443374676	 0.1999629227	-0.5460240008	-0.318783
C	 0.8734724544	-0.7618206244	 1.1657949918	 0.400103
C	 1.6540600697	-0.2980164242	 2.4284844448	-0.321633
C	 1.3567951753	-1.6782730467	 3.0355868944	-0.041762
N	-0.1192021986	-1.8171124582	 3.0694674783	-0.336724
C	 0.6264739391	-2.1121005982	 1.8130823394	-0.15936
H	 0.7053228332	 1.9873595424	 0.9049826987	 0.120071
H	-0.2466645336	 2.0112959689	-0.5887361294	 0.11897
H	-1.0383141653	 1.7316983434	 0.967475517	 0.129273
H	-0.8516626619	-0.4680321663	-0.1805455082	 0.084928
H	 2.6087878193	 1.0741507351	 0.1006060994	 0.10366
H	 3.3394023533	-0.4290295229	-0.4922176365	 0.120682
H	 2.3492154305	 0.5547886244	-1.5772316542	 0.122091
H	 2.7183183171	-0.1491022599	 2.2248998548	 0.106778
H	 1.2605406849	 0.5580770387	 2.9826646182	 0.107564
H	 1.9864289561	-2.2468611924	 3.7081409534	 0.093281
H	-0.3205604128	-2.7172161486	 3.5064434349	 0.226321
H	 0.5637355145	-3.0774482843	 1.326435689	 0.095151
107.0604	150.988	159.817	161.251	209.0026	271.5121	298.108	395.1528	445.9448	509.0112	544.5383	566.5195	753.2053	777.9109	805.4718	819.8977	836.4571	909.29	945.2927	963.6216	990.6973	1028.132	1058.6667	1076.487	1096.0196	1112.6594	1115.8981	1146.2171	1154.2513	1166.0321	1196.5623	1209.7622	1222.8942	1295.374	1316.1212	1355.5434	1376.3617	1407.0282	1441.1147	1467.4119	1477.3171	1486.9574	1493.0141	1504.6624	1507.8094	2991.4772	3034.9315	3055.3176	3065.185	3093.6602	3095.6375	3097.1646	3110.4686	3123.9099	3188.1381	3201.5295	3460.765
CC1N(C)C11CC2NC12	C[C@H]1N(C)[C@]21C[C@H]1N[C@@H]21	
InChI=1S/C7H12N2/c1-4-7(9(4)2)3-5-6(7)8-5/h4-6,8H,3H2,1-2H3	InChI=1S/C7H12N2/c1-4-7(9(4)2)3-5-6(7)8-5/h4-6,8H,3H2,1-2H3/t4-,5-,6-,7+,9?/m1/s1
