17
gdb 105124	2.43435	1.21459	0.95442	2.6549	81.29	-0.2677	-0.0056	0.2621	1265.2978	0.134152	-380.826984	-380.817547	-380.816602	-380.861383	34.268	
C	 0.0183419696	 1.5343725209	-0.310765879	-0.393714
C	-0.0238834645	 0.1194294916	 0.2736936591	-0.246128
C	-1.398366233	-0.5169353668	 0.1568573508	 0.165897
N	-1.7614743864	-1.0432383499	-1.1707734168	-0.337187
C	-1.5827825593	-2.0045505385	-0.065682341	-0.315922
C	-0.4649712725	-2.9038918331	-0.121444209	 0.370221
C	 0.4549159736	-3.6770021055	-0.1390869334	-0.399736
C	-2.4486178746	 0.1192290908	 0.9254461794	 0.253977
N	-3.2881496551	 0.6403307684	 1.5274298292	-0.341093
H	 1.0254093554	 1.9521255865	-0.2286364819	 0.122223
H	-0.2602582283	 1.5214846847	-1.3686017407	 0.134814
H	-0.6677446903	 2.2055058163	 0.2156447792	 0.136603
H	 0.6809481963	-0.531461959	-0.2497423187	 0.130846
H	 0.2677242974	 0.1292770378	 1.3300694657	 0.118456
H	-2.7530764311	-0.9122790224	-1.3576952739	 0.256186
H	-2.4837556136	-2.4275403647	 0.3727257726	 0.136397
H	 1.2694916963	-4.3585152371	-0.1628904116	 0.208159
76.8591	110.1758	120.2674	154.9557	217.026	252.2055	266.4943	344.5296	397.7956	485.1842	546.2672	591.8222	625.188	641.6093	669.5347	672.179	784.5889	824.7235	892.9473	951.7611	991.0267	1016.3449	1080.7732	1103.5362	1118.9454	1202.5837	1242.7692	1310.0314	1328.2192	1374.2158	1412.6381	1429.0952	1475.6754	1499.4185	1507.8552	2243.7594	2345.4868	3042.4323	3049.6921	3099.7379	3118.3761	3122.1638	3137.3648	3501.1335	3506.59
CCC1(NC1C#C)C#N	CC[C@]1(N[C@H]1C#C)C#N	
InChI=1S/C7H8N2/c1-3-6-7(4-2,5-8)9-6/h1,6,9H,4H2,2H3	InChI=1S/C7H8N2/c1-3-6-7(4-2,5-8)9-6/h1,6,9H,4H2,2H3/t6-,7-/m0/s1
