21
gdb 96601	2.22404	1.49809	1.03218	1.1756	74.39	-0.2472	0.0787	0.3259	1202.4064	0.184075	-461.34947	-461.340827	-461.339883	-461.382442	33.681	
O	-0.1625319874	 1.4748084674	-0.1714814602	-0.437888
C	 0.0237316408	 0.0639052533	-0.0392354001	 0.108885
C	-1.4036605566	-0.5017267915	 0.0539614244	-0.184274
C	-1.5920500135	-1.9949825289	-0.2431289604	-0.239104
C	-0.8029300745	-2.9562307956	 0.6470330404	-0.06607
O	 0.5972152957	-2.7060730531	 0.7080527524	-0.237316
C	 1.3105528245	-2.7270256445	-0.5049246543	 0.01437
O	 1.8170236917	-1.4720163683	-0.8503553107	-0.228034
C	 0.8765173803	-0.4732311384	-1.2175084266	-0.112305
H	 0.6833885062	 1.902710095	-0.0050226578	 0.2812
H	 0.5812267446	-0.167067594	 0.8759570665	 0.092038
H	-1.7997975194	-0.2639604232	 1.0479205326	 0.103703
H	-2.0076452631	 0.0704777387	-0.6605032857	 0.110361
H	-2.6540004461	-2.2457218831	-0.1279132894	 0.102479
H	-1.361911553	-2.1964603893	-1.2953217756	 0.102574
H	-1.1419791328	-2.8748961476	 1.6853255885	 0.111797
H	-0.9895016457	-3.9918199064	 0.3224415303	 0.093337
H	 2.1952149909	-3.3566117583	-0.3647473732	 0.111085
H	 0.6883239238	-3.1442654167	-1.3142624335	 0.078784
H	 0.2450613429	-0.8169586196	-2.0514118555	 0.092477
H	 1.4810253007	 0.3567712441	-1.5952373621	 0.101902
107.9139	152.1698	211.6826	237.7909	304.6403	322.8458	332.6092	363.3751	415.9331	436.821	488.4465	541.2259	580.0456	802.778	842.5598	889.3092	897.3246	949.5495	973.1366	987.4567	1027.4761	1072.8319	1091.2836	1106.9916	1117.6491	1159.3345	1196.594	1218.1695	1245.8319	1268.0377	1300.3274	1313.0864	1333.4173	1349.4592	1361.1414	1395.0394	1407.4689	1413.6629	1431.5822	1449.6014	1477.8913	1485.9383	1498.0247	1501.3449	1515.7557	2961.7676	2985.098	2990.0336	3029.7231	3037.071	3038.7212	3056.9823	3071.0787	3073.4909	3078.947	3083.9578	3817.1341
OC1CCCOCOC1	O[C@H]1CCCOCOC1	
InChI=1S/C6H12O3/c7-6-2-1-3-8-5-9-4-6/h6-7H,1-5H2	InChI=1S/C6H12O3/c7-6-2-1-3-8-5-9-4-6/h6-7H,1-5H2/t6-/m0/s1
