20
gdb 55138	3.41972	1.28701	1.10518	3.9862	80.61	-0.2248	0.0431	0.2679	1162.7908	0.172489	-403.167151	-403.158927	-403.157983	-403.200926	31.3	
C	-0.081509187	 1.448927193	-0.0557873317	-0.494317
C	-0.0583945606	-0.0722476431	 0.0061090974	 0.376847
O	-0.0908853853	-0.686659253	 1.06121218	-0.382977
N	 0.0012136489	-0.6978828685	-1.1998443466	-0.052594
C	 0.0456494934	-0.1461249726	-2.5628697703	-0.185807
C	 0.0975540217	-1.4892645052	-3.3229560922	-0.051604
C	-0.9850756528	-2.3200446934	-2.5630359352	-0.221908
C	 0.0328051645	-2.1533420846	-1.3991160647	 0.004399
C	 1.1438287448	-2.2850615169	-2.4793108062	-0.221906
H	 0.8148692967	 1.8410086826	-0.5477761781	 0.131642
H	-0.9488443488	 1.8112614261	-0.6177086658	 0.131662
H	-0.128454907	 1.8301888107	 0.9636960337	 0.145016
H	-0.8456611838	 0.4440115863	-2.8066029067	 0.111329
H	 0.9334658481	 0.4732730235	-2.7367625928	 0.11133
H	 0.1393135354	-1.4298980997	-4.409752952	 0.074726
H	-1.9793339861	-1.886191716	-2.4302768095	 0.100351
H	-1.0539898205	-3.3467981228	-2.9256784838	 0.106747
H	 0.0050146762	-2.701493693	-0.4631796978	 0.109975
H	 1.2746091129	-3.3085474325	-2.8340518621	 0.106737
H	 2.1098195894	-1.818989421	-2.2694719657	 0.100351
36.2187	94.064	125.4757	204.9559	356.4701	358.4193	479.5843	514.3828	526.8879	594.3263	618.6144	753.0921	824.6401	840.0851	854.5289	876.7714	942.003	946.9865	960.2505	1027.8319	1029.2832	1047.4387	1062.178	1076.6483	1081.3303	1117.5719	1121.8939	1191.2612	1195.0118	1225.4193	1242.7277	1270.9148	1280.8977	1312.8591	1347.2863	1380.7378	1455.9858	1473.8947	1480.3472	1484.3693	1510.2108	1527.5399	1757.856	3021.267	3040.6459	3058.8731	3065.1981	3070.0819	3101.0966	3126.3255	3132.0824	3138.4242	3161.4471	3189.2763
CC(=O)N1CC2CC1C2	CC(=O)N1C[C@@H]2C[C@H]1C2	
InChI=1S/C7H11NO/c1-5(9)8-4-6-2-7(8)3-6/h6-7H,2-4H2,1H3	InChI=1S/C7H11NO/c1-5(9)8-4-6-2-7(8)3-6/h6-7H,2-4H2,1H3/t6-,7+
