13
gdb 7016	8.34164	0.92151	0.84803	1.3873	62.29	-0.2751	-0.033	0.242	1250.6766	0.092348	-398.584168	-398.575833	-398.574888	-398.617815	28.504	
N	-0.0154404498	 1.5721933694	-0.1845852723	-0.46417
C	 0.0278689199	 0.31622574	-0.1669290136	 0.420889
C	-1.1560565312	-0.5836158172	 0.1059729284	-0.454819
C	-2.4225484288	 0.1024404944	 0.2976367264	 0.341226
C	-3.4861738358	 0.6326145448	 0.4621978448	-0.437764
O	 1.1435609919	-0.4803732325	-0.4280364375	-0.200306
C	 2.3575022753	-0.1121274521	 0.0805122322	 0.157487
O	 3.3611078385	-0.6750295538	-0.2192558449	-0.244414
H	 0.8733719466	 2.0022790086	-0.4384455375	 0.237522
H	-1.2210457959	-1.2948558328	-0.7283786378	 0.170132
H	-0.9109129173	-1.1985291078	 0.9827431041	 0.161456
H	-4.4206096058	 1.1167801052	 0.603769222	 0.203935
H	 2.2781925627	 0.7222333437	 0.797556876	 0.108826
47.0098	91.0685	131.46	165.5412	253.4447	330.9186	340.4304	423.6447	521.4012	553.8473	636.0772	664.5615	726.1635	891.6025	908.8513	968.373	995.7203	1038.6597	1052.2983	1121.5261	1226.3377	1234.7365	1372.7268	1415.7896	1443.9512	1765.0367	1878.9339	2256.7861	3003.1639	3022.947	3048.356	3497.8277	3506.7598
N=C(CC#C)OC=O	[NH][C](CC#C)OC=O	
InChI=1S/C5H5NO2/c1-2-3-5(6)8-4-7/h1,4,6H,3H2	InChI=1S/C5H5NO2/c1-2-3-5(6)8-4-7/h1,4,6H,3H2
