20
gdb 55263	3.25327	1.01304	0.89444	3.3233	82.71	-0.2255	0.0189	0.2444	1380.31	0.170833	-403.209266	-403.199548	-403.198604	-403.244779	35.063	
C	-0.0063092388	 1.6216691263	 0.1904676116	-0.490351
C	 0.0108650654	 0.1291017054	 0.0933721912	 0.338371
C	-0.3977709688	-0.6157712899	-0.9349322383	-0.17302
C	-0.2105343948	-2.1032173299	-0.6995161422	-0.134778
C	 0.1709930159	-2.1720375794	 0.7997693671	-0.238967
C	 0.569588514	-0.7326688247	 1.2047025576	-0.303958
C	-1.4887694142	-2.8923906608	-1.0233617136	 0.401512
N	-1.6080071528	-3.2531097966	-2.3351809635	-0.522555
O	-2.3422663376	-3.1581651846	-0.1999560055	-0.358114
H	 1.0047941838	 2.0191769698	 0.3472888679	 0.124007
H	-0.4177159502	 2.0840604985	-0.7108482852	 0.121614
H	-0.6052448078	 1.9531904072	 1.0481898038	 0.128888
H	-0.8096038505	-0.2240638295	-1.8596134246	 0.083234
H	 0.5946664412	-2.4874239533	-1.344127563	 0.072452
H	-0.7187223537	-2.4902609548	 1.3481877695	 0.139427
H	 0.9613749484	-2.9013504802	 0.9925712413	 0.093664
H	 1.660093434	-0.6054480105	 1.2688091837	 0.09984
H	 0.175213118	-0.4506953625	 2.1885768129	 0.104033
H	-0.9172470568	-3.0131417901	-3.0237261511	 0.256178
H	-2.4569958149	-3.7040705006	-2.6340423897	 0.258521
43.3755	69.8782	108.6925	140.4524	177.097	224.2377	306.9973	327.0274	394.719	447.282	559.0859	591.8105	616.1981	638.4922	763.0726	828.4478	849.4907	863.6976	893.9306	961.9424	976.8934	1009.6869	1034.2548	1053.0172	1074.112	1104.6656	1170.2913	1190.1727	1239.538	1257.9819	1284.7684	1290.2901	1315.2117	1363.8421	1386.5529	1413.8245	1478.5509	1483.7473	1488.2267	1502.2114	1614.3356	1721.8271	1798.0679	2979.042	3002.0258	3017.2119	3044.0019	3062.8351	3070.5514	3109.9396	3118.9441	3180.1701	3603.3497	3741.1081
CC1=CC(CC1)C(N)=O	CC1=C[C@@H](CC1)C(=O)N	
InChI=1S/C7H11NO/c1-5-2-3-6(4-5)7(8)9/h4,6H,2-3H2,1H3,(H2,8,9)	InChI=1S/C7H11NO/c1-5-2-3-6(4-5)7(8)9/h4,6H,2-3H2,1H3,(H2,8,9)/t6-/m1/s1
