21
gdb 101487	2.48383	1.34684	1.13494	1.3664	74.46	-0.2423	0.0781	0.3204	1203.9737	0.181608	-461.352171	-461.342388	-461.341443	-461.387557	34.525	
C	-0.271599749	 1.0343326649	 0.2050214689	-0.234759
O	-0.2194006774	-0.3355201919	-0.1204098445	-0.255315
C	 0.6276894832	-0.6559637176	-1.2145183498	 0.101194
C	 2.1001987129	-0.7167716547	-0.8071666506	-0.410108
C	 0.1514534721	-2.0056868883	-1.7792034383	 0.20995
O	 0.2502987022	-3.0532658434	-0.8427498111	-0.262768
C	-1.0158239968	-3.1772345835	-0.2004622953	-0.095207
C	-2.0077446216	-2.5033265476	-1.1753893074	-0.091573
O	-1.1899425332	-1.9528144717	-2.2037046372	-0.266925
H	 0.6959678526	 1.4210673052	 0.5562264846	 0.10863
H	-0.5959060787	 1.6417649943	-0.6538785051	 0.109196
H	-1.0009580949	 1.1469734302	 1.0111180476	 0.126447
H	 0.4865325031	 0.0871247875	-2.0167970638	 0.069504
H	 2.2397885583	-1.4873386809	-0.0450284618	 0.139658
H	 2.7285601163	-0.9626444365	-1.669679946	 0.116441
H	 2.4444756202	 0.2421988844	-0.4108808765	 0.115003
H	 0.7777894219	-2.2650735098	-2.6432915993	 0.087906
H	-1.2160299471	-4.2427748792	-0.0547975752	 0.106647
H	-1.0065970013	-2.6720667133	 0.7702444573	 0.113885
H	-2.6998936108	-3.2168581649	-1.6349838144	 0.104212
H	-2.5824122919	-1.7145332131	-0.6793978721	 0.107981
69.4121	77.4517	86.2767	147.8326	187.7599	219.2144	230.0861	255.7481	347.6657	376.3171	496.7071	659.7923	735.724	800.6064	810.9144	857.9748	908.0176	944.625	962.2749	1002.8134	1039.8853	1076.9208	1099.6105	1127.3048	1143.4184	1164.9143	1183.595	1202.0415	1224.3535	1234.132	1242.509	1313.9023	1344.0857	1374.074	1379.0133	1399.2723	1402.1035	1408.1364	1479.2353	1484.3195	1496.0023	1501.7595	1511.8849	1516.2772	1530.6152	2970.5387	2982.0332	3023.2631	3030.2533	3035.925	3045.3519	3048.2232	3070.9042	3098.1016	3110.4747	3111.8041	3133.0804
COC(C)C1OCCO1	CO[C@@H](C)C1OCCO1	
InChI=1S/C6H12O3/c1-5(7-2)6-8-3-4-9-6/h5-6H,3-4H2,1-2H3	InChI=1S/C6H12O3/c1-5(7-2)6-8-3-4-9-6/h5-6H,3-4H2,1-2H3/t5-/m0/s1
