15
gdb 13803	3.88234	1.25189	1.20513	2.3543	57.68	-0.2548	0.0091	0.2639	1029.3301	0.117894	-436.939111	-436.930747	-436.929802	-436.972449	29.833	
N	 0.6202216799	-0.4364982356	-0.014678599	-0.515494
C	-0.2095174562	 0.6392693923	-0.0817043147	 0.35273
O	 0.14713844	 1.7791402534	-0.3018308665	-0.355415
C	-1.6719498834	 0.3162967522	 0.1377512048	-0.045223
O	-2.0395763903	-1.0454739187	 0.383252128	-0.272511
C	-2.2348207207	-0.0862246029	 1.4403072909	 0.050914
C	-1.4303810669	-0.2946403126	 2.6982664172	-0.099814
O	-1.987265083	-1.3305913092	 3.4906591886	-0.415314
H	 1.5914779703	-0.3103086057	-0.2472970659	 0.266973
H	 0.2291760765	-1.362566763	 0.033322888	 0.270647
H	-2.321616985	 0.8628980228	-0.5436981489	 0.12561
H	-3.2855926828	 0.1472696682	 1.6159219245	 0.113362
H	-0.3789398805	-0.4867632023	 2.4493696984	 0.105377
H	-1.4721984069	 0.6138657267	 3.308366633	 0.127218
H	-1.968402071	-2.1366056657	 2.9631855617	 0.29094
65.5422	88.1268	141.9354	208.6433	283.021	338.4995	368.3923	430.6727	471.3169	509.5122	547.7271	639.7364	747.27	797.7088	830.0866	946.2007	962.267	1048.3992	1071.6458	1090.7437	1129.926	1140.1814	1227.471	1276.8328	1336.2974	1364.3654	1391.1147	1418.5592	1473.4472	1496.2398	1598.7469	1807.624	3027.9629	3083.6064	3113.974	3138.1765	3595.817	3734.366	3807.4037
NC(=O)C1OC1CO	NC(=O)[C@H]1O[C@H]1CO	
InChI=1S/C4H7NO3/c5-4(7)3-2(1-6)8-3/h2-3,6H,1H2,(H2,5,7)	InChI=1S/C4H7NO3/c5-4(7)3-2(1-6)8-3/h2-3,6H,1H2,(H2,5,7)/t2-,3-/m0/s1
