18
gdb 79073	2.40579	1.94806	1.4723	2.129	74.73	-0.2391	-0.0034	0.2357	962.2903	0.149465	-398.082337	-398.074732	-398.073788	-398.113938	30.244	
C	-0.1319496891	 1.5719244496	-0.0275142338	-0.527553
C	 0.01787082	 0.0866122608	 0.01228413	 0.367261
C	 0.4756927214	-0.9211097948	-0.9726747615	-0.080466
C	 1.3366315245	-1.6361629187	 0.07461553	-0.008262
N	 2.7006098708	-1.1311844369	-0.0061637262	-0.522557
C	 0.5186572923	-0.850454351	 1.1653984948	-0.08572
N	-0.6192497961	-1.7074469232	 1.5282699911	-0.193761
C	-1.350838063	-1.7048266914	 0.4873637508	 0.026207
N	-0.9842666001	-0.8238704924	-0.5845200153	-0.206699
H	 0.8351793439	 2.0549981246	 0.1442196715	 0.134791
H	-0.5115382848	 1.8897455217	-1.0026188637	 0.134401
H	-0.8302666163	 1.9187807902	 0.7420101844	 0.129199
H	 0.6830400078	-0.8378861228	-2.033904041	 0.099713
H	 1.2450155115	-2.7295967735	 0.146417996	 0.065623
H	 3.246096692	-1.5042928085	 0.7658561588	 0.232577
H	 3.1471719139	-1.4630100103	-0.8566053618	 0.230439
H	 1.0703652092	-0.4587103513	 2.0173285536	 0.079729
H	-2.2444826679	-2.3098033321	 0.3713212123	 0.125077
147.8715	195.6594	242.3847	253.9659	307.4921	323.7113	438.8991	439.9701	595.9183	616.2776	717.1002	741.6255	808.6951	834.9121	888.6524	891.2725	908.1556	961.7742	968.7738	984.8165	1004.5694	1045.4138	1078.705	1107.3505	1118.6923	1158.4765	1174.7634	1190.8028	1234.0897	1269.0995	1309.5057	1333.4706	1375.7792	1399.6497	1450.4058	1481.9726	1490.5508	1657.8827	1661.1356	2988.4819	3034.753	3101.1488	3118.2159	3142.1157	3175.0449	3194.7103	3483.8195	3559.1386
CC12C3C(N)C1N=CN23	C[C@@]12[C@H]3[C@@H](N)[C@@H]1[N][CH]N23	
InChI=1S/C6H9N3/c1-6-4-3(7)5(6)9(6)2-8-4/h2-5H,7H2,1H3	InChI=1S/C6H9N3/c1-6-4-3(7)5(6)9(6)2-8-4/h2-5H,7H2,1H3/t3-,4-,5+,6-,9?/m0/s1
