16
gdb 132614	3.15131	1.29031	0.9183	2.5983	77.09	-0.1896	0.0099	0.1995	1182.5939	0.126155	-442.099165	-442.091361	-442.090417	-442.131058	31.14	
N	 0.0460936137	 1.4229296164	 0.0704688058	-0.610513
C	 0.0029157555	 0.0103697843	 0.0124090156	 0.235008
C	-1.1826568821	-0.7159204084	 0.0505534782	-0.168707
C	-1.1837791162	-2.111740366	 0.0363413501	-0.276286
C	 0.0332881447	-2.7654145756	-0.0341832295	 0.30567
F	 0.0638035494	-4.1069870717	-0.0630670663	-0.091194
C	 1.237307953	-2.0744327918	-0.0639334419	-0.354652
C	 1.2331202095	-0.6807896782	-0.0298209313	 0.30013
N	 2.4121079182	 0.076082081	-0.0858417113	-0.605849
H	 0.6424128748	 1.812047972	-0.653454466	 0.248572
H	-0.8739475128	 1.8385217816	-0.0002296978	 0.240581
H	-2.1277877164	-0.1815515856	 0.0861650552	 0.085832
H	-2.1049679069	-2.6798661577	 0.0637351895	 0.10123
H	 2.1691413476	-2.6284309423	-0.0986976486	 0.092663
H	 3.2464955148	-0.4593542157	 0.1118363477	 0.244682
H	 2.3665747032	 0.8983961478	 0.5058102808	 0.252834
154.0217	205.4775	234.0071	309.5192	333.1177	377.6622	450.4118	452.6592	459.0292	506.1686	580.2268	614.9157	712.7242	723.8306	768.5828	784.3373	801.146	843.9887	858.9783	900.7021	987.8641	1080.6056	1127.9894	1159.1744	1199.1251	1270.6855	1307.3379	1335.4779	1386.8531	1482.6267	1550.535	1623.1901	1643.8739	1654.4461	1671.4653	3164.5681	3188.2675	3213.0432	3501.7572	3519.4544	3607.8092	3627.7702
NC1=CC=C(F)C=C1N	Nc1ccc(F)cc1N	
InChI=1S/C6H7FN2/c7-4-1-2-5(8)6(9)3-4/h1-3H,8-9H2	InChI=1S/C6H7FN2/c7-4-1-2-5(8)6(9)3-4/h1-3H,8-9H2
