17
gdb 103366	3.33706	1.43349	1.28141	2.1807	67.82	-0.2344	0.0024	0.2368	1012.8919	0.135378	-458.900115	-458.892315	-458.891371	-458.932135	30.991	
O	-0.1364055841	 1.4689221451	-0.0540981994	-0.440042
C	-0.0164356243	 0.0462194603	 0.0375783874	-0.160352
C	-1.4432594639	-0.4958748184	 0.0294080356	 0.450079
O	-2.2095909286	 0.1807570502	 0.9710553764	-0.486812
C	-2.0243220887	-0.796692608	-1.421074385	-0.062479
O	-1.1620048012	-1.9795651917	-1.4143872029	-0.288592
C	-1.5527237572	-2.0585723979	-0.0048359637	-0.049104
C	-3.0708875938	-2.2626492273	-0.1108113257	-0.072281
C	-3.3893312922	-1.4019973074	-1.0797921109	-0.071685
H	 0.713171435	 1.8635205135	 0.1600431064	 0.297308
H	 0.5594058585	-0.3686048094	-0.7942518023	 0.122219
H	 0.4648974193	-0.2398221178	 0.9847939153	 0.095434
H	-1.8542572379	 1.0803699598	 0.9974230615	 0.28936
H	-1.8959156894	-0.1430398406	-2.2826177517	 0.08007
H	-0.9412529071	-2.72531337	 0.6033107568	 0.075038
H	-3.6833628457	-2.9199566675	 0.4871378954	 0.111435
H	-4.3444425486	-1.1443128229	-1.5117310432	 0.110404
100.1583	176.9066	242.279	257.1564	322.1415	382.6753	404.8376	506.8885	560.7261	583.4965	613.7685	678.6727	734.0448	799.2373	849.3393	869.9923	888.2994	908.6682	914.0622	945.9469	994.3449	1024.94	1062.585	1096.2679	1140.469	1148.6382	1201.1988	1219.54	1231.5366	1253.8122	1280.9089	1297.6774	1308.1233	1416.0255	1445.0829	1516.1648	1615.7214	2992.8276	3088.656	3123.9506	3137.5221	3237.4937	3264.3829	3741.5008	3845.5385
OCC1(O)C2OC1C=C2	OC[C@@]1(O)[C@H]2O[C@@H]1C=C2	
InChI=1S/C6H8O3/c7-3-6(8)4-1-2-5(6)9-4/h1-2,4-5,7-8H,3H2	InChI=1S/C6H8O3/c7-3-6(8)4-1-2-5(6)9-4/h1-2,4-5,7-8H,3H2/t4-,5+,6+
