18
gdb 23220	2.93204	1.5193	1.21945	0.9203	74.85	-0.2499	0.0085	0.2584	1047.1143	0.149043	-439.029199	-439.021564	-439.02062	-439.060977	30.84	
O	-0.2346776164	 1.3136668195	 0.046439562	-0.414806
N	-0.0025920176	-0.0943815099	 0.0328635254	-0.292516
C	-1.1095208302	-0.7107218155	-0.0135624967	 0.440141
C	-1.3090731213	-2.1962911992	 0.0161550869	-0.113257
C	-2.4961274787	-2.333079619	-0.9973873092	-0.241915
C	-3.2646839587	-1.5164451109	 0.0821691005	-0.048364
C	-2.4121648084	-2.2885067338	 1.1307114487	-0.228542
C	-2.541319669	-0.1592653033	 0.005620572	 0.071685
O	-2.8052095327	 0.6477103069	 1.1333971811	-0.450723
H	 0.6577977468	 1.6651685968	 0.1268063963	 0.30888
H	-0.4268437078	-2.8323499208	-0.003284655	 0.08197
H	-2.3741068401	-1.9006421476	-1.9947838775	 0.102051
H	-2.8531489738	-3.3621886495	-1.0712251398	 0.108363
H	-4.3521790885	-1.4842812406	 0.1244596704	 0.075913
H	-2.7533684468	-3.31553943	 1.2764021259	 0.102624
H	-2.2190351243	-1.8004393967	 2.0870757823	 0.118327
H	-2.7754042146	 0.3726877859	-0.9288115678	 0.083509
H	-2.1195147778	 1.3275188975	 1.1388523545	 0.296661
116.8034	201.9933	233.9997	306.7651	355.2973	407.2527	430.5322	465.7536	481.9165	565.4461	645.8992	682.3198	819.0377	828.3485	848.0566	869.8191	895.815	931.9369	932.9499	1002.3378	1017.4716	1042.9763	1064.2863	1080.5936	1096.1251	1140.1297	1202.9812	1212.774	1223.8027	1243.958	1259.1041	1286.7583	1311.7755	1351.2078	1390.7912	1420.6266	1486.0148	1517.7939	1780.3625	2988.7653	3057.4522	3074.4773	3122.822	3131.7514	3141.1398	3146.3872	3778.4597	3829.05
ON=C1C2CC(C2)C1O	O[N][C]1[C@@H]2C[C@@H](C2)[C@H]1O	
InChI=1S/C6H9NO2/c8-6-4-1-3(2-4)5(6)7-9/h3-4,6,8-9H,1-2H2	InChI=1S/C6H9NO2/c8-6-4-1-3(2-4)5(6)7-9/h3-4,6,8-9H,1-2H2/t3-,4+,6-/m1/s1
