15
gdb 19098	3.75419	2.89657	2.85031	0.213	61.68	-0.2227	0.0405	0.2632	608.5072	0.122166	-362.564933	-362.560124	-362.55918	-362.5935	20.871	
C	-0.0193320055	 1.5289546038	 0.1412901012	-0.233807
C	 1.5067936886	 1.4502264082	-0.0222304806	-0.0245
C	 2.1670773118	 0.7495508254	 1.2195357772	 0.078097
O	 1.1597384857	 0.3349148749	 2.171346101	-0.290032
C	 0.7231752488	-0.6678200485	 1.2244902865	 0.078097
C	 0.0305257181	 0.0010808881	-0.0171668854	-0.0245
N	 1.3796190468	 0.1007114134	-0.7487830488	-0.178239
C	 2.0494324143	-0.5775051864	 0.4345549539	-0.040465
H	-0.4151101736	 1.9353977417	 1.0733399392	 0.11795
H	-0.489208476	 2.0046092753	-0.7217084748	 0.112745
H	 2.0716707039	 2.247348418	-0.508868894	 0.076074
H	 3.0478113633	 1.1844320769	 1.6927704974	 0.085078
H	 0.2737023252	-1.5387092833	 1.7022883011	 0.085078
H	-0.7786251324	-0.5505819464	-0.4990902188	 0.076074
H	 2.806651741	-1.3493673412	 0.3013987047	 0.08235
363.4988	449.7969	523.4827	693.2217	710.9116	770.9491	789.0377	804.0527	823.2383	848.7065	914.8221	918.7198	951.4639	959.9466	972.4092	976.5011	1001.4797	1038.5645	1094.9003	1103.4176	1167.7413	1173.6572	1191.0084	1196.1491	1242.5155	1243.7615	1266.0509	1276.703	1299.8394	1318.2928	1338.6175	1461.7748	3074.5827	3091.0824	3092.7781	3107.1229	3109.9313	3125.4294	3138.5191
C1C2C3OC4C1N2C34	C1[C@H]2[C@H]3O[C@H]4[C@@H]1N2[C@@H]34	
InChI=1S/C6H7NO/c1-2-5-4-6(8-5)3(1)7(2)4/h2-6H,1H2	InChI=1S/C6H7NO/c1-2-5-4-6(8-5)3(1)7(2)4/h2-6H,1H2/t2-,3+,4-,5+,6-
