19
gdb 54307	2.53462	1.42435	1.07394	1.8852	75.76	-0.2433	-0.0286	0.2147	1165.5013	0.159287	-419.17407	-419.165104	-419.16416	-419.208132	33.189	
C	 1.1971569099	 0.1155598075	-0.3256524785	-0.503319
C	-0.1873414403	 0.2953836551	 0.253889578	 0.335429
O	-0.4828504569	 1.2609271971	 0.9285698518	-0.321446
C	-1.2273712682	-0.769387936	-0.0294155333	 0.195314
C	-1.9823279057	-1.2227413866	 1.1886633144	-0.247908
N	-2.6171037483	-0.3472857556	 0.2123036083	-0.344786
C	-1.0055947551	-1.7002703884	-1.1852291476	-0.085448
C	-2.1413237776	-2.3815503747	-1.8460905876	-0.24672
N	-1.4262283484	-1.293083306	-2.5413367671	-0.330324
H	 1.6396731819	-0.8262598206	 0.0176416879	 0.145296
H	 1.1454912667	 0.0615839233	-1.4184829732	 0.166681
H	 1.8286143266	 0.9508754072	-0.0225479603	 0.144525
H	-2.3514564996	-2.2441439697	 1.2097703196	 0.126739
H	-1.688187653	-0.7999446934	 2.1450040488	 0.133321
H	-2.5724508796	 0.6099555567	 0.5644656308	 0.250463
H	-0.0471475178	-2.2140194522	-1.1727977673	 0.090898
H	-1.9960270085	-3.3696926027	-2.2729829849	 0.115972
H	-3.1359472948	-2.1712983596	-1.4668718289	 0.137178
H	-1.9925133713	-0.4498788014	-2.4557274607	 0.238135
66.5856	76.2952	177.4569	191.0283	216.5035	272.5162	310.389	376.0167	450.7859	463.0358	586.4528	616.5606	674.9478	832.796	846.6972	878.2035	885.8739	942.8118	972.7089	986.0498	1016.0829	1031.1687	1044.796	1083.5467	1125.2472	1130.4372	1157.3758	1191.4045	1210.2402	1264.3636	1294.3842	1308.7829	1317.3943	1357.1008	1388.0856	1441.3809	1464.9663	1475.6764	1492.2141	1498.1684	1782.7676	3039.7487	3101.4812	3112.5082	3118.3394	3132.1452	3157.3169	3208.6027	3213.8893	3459.5635	3475.8201
CC(=O)C1(CN1)C1CN1	CC(=O)[C@]1(CN1)[C@H]1CN1	
InChI=1S/C6H10N2O/c1-4(9)6(3-8-6)5-2-7-5/h5,7-8H,2-3H2,1H3	InChI=1S/C6H10N2O/c1-4(9)6(3-8-6)5-2-7-5/h5,7-8H,2-3H2,1H3/t5-,6-/m1/s1
