18
gdb 64301	2.32331	1.53079	1.1497	3.864	80.	-0.266	-0.0432	0.2228	1117.6707	0.147249	-401.987197	-401.978316	-401.977372	-402.020661	33.381	
C	 0.2780793069	 1.5119584053	-0.0833844178	-0.448606
C	-0.0526719622	 0.0201822866	 0.0415045536	 0.280203
O	-1.4570509169	-0.1698470912	 0.1536586907	-0.460772
C	 0.4414623439	-0.8274456489	-1.1580820812	-0.254942
C	 1.7386517878	-1.5346356326	-0.6991904663	-0.264918
C	 1.6687771193	-1.4577507686	 0.8013355359	-0.169863
C	 0.7085079191	-0.6223192435	 1.2111077634	 0.185653
C	 0.377017117	-0.2914926206	 2.5513461914	 0.201198
N	 0.0489902486	 0.0256336436	 3.6169525389	-0.346037
H	 1.3462099375	 1.6682419171	-0.2638961807	 0.122602
H	-0.2868411121	 1.9452894183	-0.9138754166	 0.130277
H	 0.0142898911	 2.0492463134	 0.8347792645	 0.128144
H	-1.786497171	 0.4003666802	 0.8581579069	 0.288432
H	-0.3360439818	-1.5659294143	-1.3672137391	 0.131412
H	 0.5800318403	-0.2227815849	-2.0569079557	 0.107471
H	 1.8118186689	-2.5667334748	-1.0585604096	 0.122812
H	 2.6407910303	-1.0229517252	-1.0619329901	 0.124416
H	 2.3383894832	-2.0004354601	 1.4587775619	 0.122519
72.2804	128.8107	146.6308	244.2279	274.3435	302.0458	334.81	373.9575	389.3921	456.2055	521.5949	587.9664	652.8881	673.8033	718.3996	804.112	889.3414	918.4171	935.4387	960.9952	986.0806	1021.6595	1094.02	1106.0043	1135.0482	1206.9163	1215.9885	1247.5155	1296.9207	1317.4321	1342.193	1374.6609	1405.0176	1475.4328	1487.1674	1494.9242	1496.9518	1687.0861	2330.9857	3017.788	3030.4175	3063.1614	3075.5317	3100.2226	3116.9405	3123.2206	3204.487	3795.5372
CC1(O)CCC=C1C#N	C[C@@]1(O)CCC=C1C#N	
InChI=1S/C7H9NO/c1-7(9)4-2-3-6(7)5-8/h3,9H,2,4H2,1H3	InChI=1S/C7H9NO/c1-7(9)4-2-3-6(7)5-8/h3,9H,2,4H2,1H3/t7-/m1/s1
