17
gdb 50586	3.86684	1.18791	1.01022	3.7105	68.6	-0.2595	-0.0356	0.2238	1162.8906	0.135701	-458.944498	-458.936622	-458.935678	-458.977636	29.29	
O	-0.6289659632	 0.7139345569	 0.6675662622	-0.235573
C	 0.1518010865	 0.9109966698	-0.2215767659	 0.163537
C	 1.3984464804	 1.7836494628	-0.0759200471	 0.112772
O	 2.5023428929	 0.9435150143	-0.2809035017	-0.255124
C	 3.7251171391	 1.6283951948	-0.0077421829	-0.108258
C	 3.7845524901	 2.9615458825	-0.725081592	-0.071798
C	 3.5005797014	 3.060685267	-2.2071968761	-0.303046
C	 2.4778803584	 3.5396457598	-1.2127888249	 0.101762
O	 1.3053304136	 2.7737577574	-1.0697677071	-0.264594
H	 0.0419734341	 0.4709072811	-1.2347833832	 0.099006
H	 1.4326295127	 2.2308269606	 0.93153339	 0.07961
H	 3.8180338779	 1.7879369639	 1.0777932152	 0.105115
H	 4.5258755776	 0.9542996543	-0.3248715398	 0.122161
H	 4.5035750548	 3.6609262826	-0.3099289413	 0.099964
H	 4.0475923988	 3.7938353297	-2.7892037495	 0.117398
H	 3.2505705161	 2.1442507117	-2.7303453763	 0.132341
H	 2.2858895389	 4.6034508909	-1.1102828898	 0.104729
54.862	95.6874	183.9013	251.9302	307.4017	366.4045	450.9234	464.8828	520.4373	602.8608	737.0678	765.5471	817.0657	857.2904	925.756	943.9068	1012.5876	1026.3798	1038.8219	1060.9699	1082.13	1109.8869	1117.648	1132.2631	1150.6229	1185.1139	1228.5071	1277.5136	1341.6246	1356.7467	1381.0307	1397.5312	1414.7939	1418.119	1479.1539	1501.6392	1858.0822	2923.6582	2975.6437	2988.16	3084.9835	3137.3373	3148.5054	3159.8994	3230.4704
O=CC1OCC2CC2O1	O=C[C@H]1OC[C@H]2C[C@H]2O1	
InChI=1S/C6H8O3/c7-2-6-8-3-4-1-5(4)9-6/h2,4-6H,1,3H2	InChI=1S/C6H8O3/c7-2-6-8-3-4-1-5(4)9-6/h2,4-6H,1,3H2/t4-,5-,6+/m1/s1
