19
gdb 103955	3.33609	1.23949	1.12314	1.7337	70.46	-0.2393	0.0561	0.2954	1136.8488	0.15797	-460.110783	-460.10204	-460.101096	-460.143719	34.087	
C	-0.1850342104	 1.6448275001	 0.2015225801	-0.454986
C	-0.0237105338	 0.1357921719	 0.1824407192	 0.361408
C	-1.3110212737	-0.5754375585	-0.2507771131	-0.080006
O	-1.6433799238	-0.250267689	-1.5844913144	-0.42009
O	 1.0272751796	-0.331583221	-0.7621385054	-0.359291
C	 1.576900461	-1.18388913	 0.2558927275	 0.010091
C	 2.1820292731	-0.328357685	 1.3080504253	 0.121029
O	 2.7892582354	 0.8872243468	 1.0059918171	-0.433697
C	 0.6798952058	-0.5820184389	 1.3354294872	-0.236337
H	 0.7509496304	 2.1463711306	 0.4454180591	 0.132911
H	-0.5580790978	 1.9898567795	-0.7664732089	 0.135644
H	-0.9234796725	 1.918138808	 0.9630523218	 0.122579
H	-1.1847245302	-1.6609141654	-0.1176065326	 0.086151
H	-2.1496276667	-0.2541113088	 0.3767295995	 0.10788
H	-0.8601581359	-0.4666970495	-2.1061398677	 0.291119
H	 1.8451906005	-2.1965954921	-0.0235886028	 0.105167
H	 2.7123185916	-0.8605458375	 2.0935315936	 0.114389
H	 2.6398497854	 1.0293951464	 0.061433921	 0.29539
H	 0.177233982	-1.0467865676	 2.1745583935	 0.10065
111.5211	143.306	191.9014	218.9316	267.7482	283.5681	357.4443	394.0939	454.7706	474.9433	496.8067	598.4195	683.8206	688.1604	732.1084	819.1695	836.9614	909.8675	920.711	945.107	982.7094	1020.5376	1047.6021	1056.6243	1069.8478	1081.9477	1122.6613	1161.7716	1201.1297	1224.7614	1265.1388	1282.3986	1330.5762	1358.4379	1384.5311	1410.1553	1430.6111	1453.1638	1490.403	1493.5901	1506.2421	2986.2087	3048.9167	3072.4323	3115.2956	3151.7313	3160.3728	3171.8716	3191.6039	3758.0782	3780.1126
CC1(CO)OC2C(O)C12	C[C@@]1(CO)O[C@H]2[C@@H](O)[C@@H]12	
InChI=1S/C6H10O3/c1-6(2-7)3-4(8)5(3)9-6/h3-5,7-8H,2H2,1H3	InChI=1S/C6H10O3/c1-6(2-7)3-4(8)5(3)9-6/h3-5,7-8H,2H2,1H3/t3-,4+,5-,6+/m1/s1
