19
gdb 84521	2.86255	1.6142	1.17808	1.3919	85.31	-0.2177	-0.0244	0.1933	1069.684	0.161988	-385.91009	-385.902622	-385.901678	-385.941809	30.187	
O	 0.2878318827	 1.3742774524	-0.1569393276	-0.426463
C	 0.0849307723	-0.0355304753	-0.0577438813	 0.046631
C	 0.5740869985	-0.5574484129	 1.2915182981	-0.119507
C	-0.4447072872	-0.8377016838	 2.1269241112	-0.201747
C	-1.7079003549	-0.630504294	 1.4350655481	 0.35981
C	-2.9866885248	-0.3601693878	 1.710887408	-0.249575
C	-3.7179846561	 0.0581546966	 0.4458664755	-0.243691
C	-2.5618057371	 0.3815439307	-0.5501794732	-0.245233
C	-1.4007988767	-0.4874905901	-0.0431501954	-0.072333
H	-0.0261399106	 1.7670051572	 0.6656048187	 0.279961
H	 0.6374077961	-0.4497946453	-0.905455242	 0.086013
H	 1.6262240313	-0.5666267645	 1.5539655779	 0.103154
H	-0.345518294	-1.1186869499	 3.1691629309	 0.105197
H	-3.4599355123	-0.3952320807	 2.6857306358	 0.090811
H	-4.356736912	-0.7540723497	 0.0673066716	 0.105263
H	-4.3822819288	 0.9145104927	 0.6093654358	 0.102224
H	-2.8334470117	 0.1905186915	-1.5915809603	 0.094184
H	-2.2842299299	 1.4376106778	-0.4698678376	 0.104452
H	-1.4354041348	-1.4856049248	-0.5039702242	 0.080848
109.4439	178.2294	247.5241	307.162	339.8953	359.4649	477.6773	546.1416	607.8681	638.3848	712.5632	777.652	799.9742	824.3176	841.98	872.7706	910.6003	930.9881	962.8738	973.1137	990.1183	998.0515	1068.223	1095.487	1128.6718	1160.8893	1182.728	1216.3961	1240.5938	1253.5761	1268.8822	1299.2216	1312.1997	1342.6837	1353.169	1368.5866	1429.2329	1484.4805	1501.4905	1608.9697	1718.4101	2993.7733	2995.327	3048.1073	3059.4173	3075.4382	3102.3425	3188.0912	3193.8756	3210.8523	3796.7127
OC1C=CC2=CCCC12	O[C@H]1C=CC2=CCC[C@@H]12	
InChI=1S/C8H10O/c9-8-5-4-6-2-1-3-7(6)8/h2,4-5,7-9H,1,3H2	InChI=1S/C8H10O/c9-8-5-4-6-2-1-3-7(6)8/h2,4-5,7-9H,1,3H2/t7-,8+/m1/s1
