18
gdb 88739	2.96104	0.97337	0.95283	1.7862	73.59	-0.256	-0.0333	0.2226	1321.6213	0.145586	-439.041138	-439.032025	-439.031081	-439.076322	32.632	
C	-0.7241844432	 0.9238519865	 0.6425923859	-0.406251
C	 0.2350732796	-0.1241756986	 0.1446465188	 0.082722
O	 1.5045138227	 0.3216161191	-0.3476970754	-0.262252
C	 1.4940514969	-0.539967139	 0.7946565801	 0.03558
C	 2.0906889025	 0.018436618	 2.0536887014	-0.053292
N	 1.2679268013	 0.6942726382	 3.044537674	-0.325955
C	 1.872545605	-0.6051589756	 3.4063940674	-0.137142
C	 0.9040014342	-1.7228378852	 3.5872088634	 0.180579
O	 1.131087614	-2.7057570787	 4.2461221283	-0.258057
H	-0.2277170751	 1.6528016287	 1.2806649617	 0.1414
H	-1.1741733149	 1.4384094256	-0.2133057739	 0.122391
H	-1.5319142925	 0.4585643373	 1.2169541546	 0.123059
H	-0.2248762255	-0.882297309	-0.4946018587	 0.091419
H	 1.8518056733	-1.5489816749	 0.5731193687	 0.102479
H	 3.1025505256	 0.393642475	 1.8988560123	 0.114966
H	 1.7783044872	 1.452684546	 3.488350644	 0.248905
H	 2.7240681505	-0.6331894459	 4.0811909431	 0.111348
H	-0.0622841216	-1.5728904577	 3.0582883742	 0.088101
26.2494	80.8906	145.7246	179.5315	219.1401	279.8867	297.773	345.6769	417.5246	444.9084	528.9774	655.1081	763.1827	794.209	842.2367	887.9707	914.0578	973.2353	989.3208	1004.4014	1044.1888	1062.1119	1086.4375	1128.648	1172.506	1180.1559	1194.2946	1226.0454	1236.353	1312.814	1359.8136	1388.3895	1415.1857	1423.6173	1457.8516	1470.8642	1481.5842	1507.3363	1825.5836	2901.8765	3042.4611	3067.4768	3080.5626	3100.8708	3108.3231	3154.2161	3169.9412	3515.2853
CC1OC1C1NC1C=O	C[C@H]1O[C@H]1[C@H]1N[C@H]1C=O	
InChI=1S/C6H9NO2/c1-3-6(9-3)5-4(2-8)7-5/h2-7H,1H3	InChI=1S/C6H9NO2/c1-3-6(9-3)5-4(2-8)7-5/h2-7H,1H3/t3-,4+,5+,6-/m1/s1
