16
gdb 25557	4.06618	0.95887	0.84889	3.6165	74.17	-0.2337	-0.0041	0.2296	1341.5649	0.12485	-437.903789	-437.895592	-437.894647	-437.938324	29.028	
N	-0.5164438506	 1.1321642369	 0.2336663247	-0.438457
C	-0.6217205895	-0.1103242316	 0.4252440222	 0.132489
O	-0.6145165679	-0.9543663222	-0.6277766746	-0.176094
C	-0.843327719	-2.3423089733	-0.3428346848	-0.224469
C	-2.2838409804	-2.6984153946	-0.2802586425	 0.374776
C	-3.1279498218	-3.338782419	-1.1340395484	-0.265397
C	-4.4134096124	-3.3524662127	-0.5029763541	-0.167489
C	-4.2522298646	-2.715066814	 0.6853248793	-0.011839
O	-2.9637137852	-2.314469533	 0.8415611238	-0.177086
H	-0.513804139	 1.6201898997	 1.1269346628	 0.227999
H	-0.7128447399	-0.6177842727	 1.3947361019	 0.090661
H	-0.3728261891	-2.8905319637	-1.1608124049	 0.137166
H	-0.3362242802	-2.6147986883	 0.5919691004	 0.122123
H	-2.8670983469	-3.7475220734	-2.0978412822	 0.11876
H	-5.3279620461	-3.7775086868	-0.8849916846	 0.117813
H	-4.9179667674	-2.4759846715	 1.4981465108	 0.139046
40.8417	58.3119	102.0729	163.5819	277.3222	358.4988	387.1058	613.3806	618.1235	659.9553	752.5441	767.7779	818.073	822.2128	862.8603	901.4785	924.2755	964.7936	994.0511	1039.5234	1040.7353	1108.8189	1117.7198	1186.6598	1227.7252	1248.3646	1272.0019	1333.5634	1391.9527	1420.9104	1425.9123	1480.0756	1533.8894	1639.7141	1745.4739	3021.472	3034.7317	3123.5022	3253.9414	3264.8087	3286.7862	3517.4442
N=COCC1=CC=CO1	[NH][CH]OCc1ccco1	
InChI=1S/C6H7NO2/c7-5-8-4-6-2-1-3-9-6/h1-3,5,7H,4H2	InChI=1S/C6H7NO2/c7-5-8-4-6-2-1-3-9-6/h1-3,5,7H,4H2
