17
gdb 127474	3.20396	1.2153	0.92566	1.6467	73.62	-0.2065	0.0061	0.2126	1249.0365	0.137408	-451.328702	-451.319595	-451.318651	-451.36364	32.467	
C	-0.1049908908	 1.3925811961	-0.0828964407	-0.307981
N	-0.0233160822	-0.0475817636	-0.005844505	 0.142337
N	 0.0979051858	-0.8070603302	-1.1065563661	-0.325978
C	 0.1063247381	-2.0485631832	-0.6228490426	 0.275309
N	 0.1693685813	-3.1847468845	-1.4110248542	-0.5987
C	-0.0086988384	-1.9907030155	 0.7853471466	 0.222081
C	-0.0214725712	-3.1321805379	 1.7462490387	-0.188871
O	 1.0342681101	-4.0623784979	 1.4756297098	-0.416893
N	-0.0807942786	-0.7047714657	 1.1402058116	-0.294569
H	 0.7620254356	 1.7896387434	-0.6173847135	 0.146929
H	-1.014877761	 1.6973169311	-0.6085604669	 0.147236
H	-0.1219604413	 1.7740361794	 0.9370848358	 0.158674
H	 0.5420512283	-3.0162418877	-2.3348604892	 0.252076
H	 0.6299566893	-3.9510727814	-0.9372947631	 0.258732
H	 0.0197284553	-2.7521987643	 2.7751401941	 0.116897
H	-0.9390010425	-3.7225058572	 1.6453837066	 0.127024
H	 1.8650329123	-3.585147781	 1.578355698	 0.285697
26.6068	87.93	147.0369	181.1922	233.0021	289.665	327.7583	368.2902	393.8159	445.8187	515.5009	641.6252	651.7704	669.8044	733.7709	787.9306	833.8892	972.1992	1018.9565	1035.282	1066.9845	1149.2992	1150.8079	1194.7296	1281.6996	1337.8031	1357.4471	1390.8165	1417.2098	1448.6379	1448.8591	1475.604	1497.3763	1511.9013	1560.3578	1584.8073	1648.3525	3023.8501	3048.9817	3070.3249	3111.4527	3172.0144	3546.4819	3652.9513	3804.4471
CN1N=C(N)C(CO)=N1	Cn1nc(N)c(CO)n1	
InChI=1S/C4H8N4O/c1-8-6-3(2-9)4(5)7-8/h9H,2H2,1H3,(H2,5,7)	InChI=1S/C4H8N4O/c1-8-6-3(2-9)4(5)7-8/h9H,2H2,1H3,(H2,5,7)
