20
gdb 18162	3.53298	1.51447	1.334	1.4518	74.58	-0.2443	0.076	0.3204	1026.3425	0.177149	-348.97342	-348.965164	-348.96422	-349.00584	31.635	
C	-0.0279322618	 1.6212046443	-0.0000670749	-0.378514
C	 0.02632678	 0.1043263711	 0.209171279	-0.198939
C	-1.3307912915	-0.5649407732	 0.0039739942	 0.055279
C	-1.9626722248	-0.6603072164	-1.4273045198	-0.251868
C	-2.1813684283	-2.1654331443	-1.2222591806	-0.121494
C	-0.8738412716	-2.8541852984	-0.9840267737	 0.112359
O	 0.3282352013	-2.4536651677	-1.5857454385	-0.416947
C	-1.4634154538	-2.089494703	 0.1535030092	-0.126113
H	 0.9534842692	 2.0805035792	 0.1546726744	 0.108695
H	-0.3524263856	 1.870954515	-1.0165811627	 0.113679
H	-0.7303674686	 2.0962663522	 0.6949574197	 0.106882
H	 0.7558605635	-0.3468521474	-0.4684492207	 0.121816
H	 0.3732961306	-0.1118630858	 1.2288396709	 0.086551
H	-2.0638579388	-0.0902450328	 0.667156088	 0.067904
H	-2.8899458125	-0.093343288	-1.5262588173	 0.098821
H	-1.3005773605	-0.3995293223	-2.2591075195	 0.090133
H	-3.0755198644	-2.7115148433	-1.5010361783	 0.081681
H	-0.9633427775	-3.9348544796	-0.8602601223	 0.08506
H	 0.2684187758	-2.6566703396	-2.5255264241	 0.284141
H	-1.7100828606	-2.5908092103	 1.083390197	 0.080872
96.6537	146.9134	173.2243	236.333	253.1143	283.0887	364.5583	403.4166	488.6106	613.9471	712.5124	736.7647	781.0141	808.4407	836.1154	914.3443	946.4352	962.4823	996.3369	1009.8386	1017.9515	1030.3348	1076.1129	1088.4857	1132.3231	1140.6413	1196.472	1214.8755	1246.181	1271.1277	1291.3095	1294.584	1302.7744	1331.7261	1361.8021	1396.4079	1411.3744	1455.4211	1486.4394	1495.2026	1499.7865	1508.2829	3018.271	3024.8323	3027.417	3051.6155	3080.6061	3088.0493	3098.321	3107.4621	3112.9896	3160.8895	3174.635	3800.6732
CCC1CC2C(O)C12	CC[C@H]1C[C@H]2[C@@H](O)[C@@H]12	
InChI=1S/C7H12O/c1-2-4-3-5-6(4)7(5)8/h4-8H,2-3H2,1H3	InChI=1S/C7H12O/c1-2-4-3-5-6(4)7(5)8/h4-8H,2-3H2,1H3/t4-,5+,6-,7+/m0/s1
