14
gdb 7702	3.57743	1.99085	1.28898	1.4401	68.08	-0.2582	-0.0439	0.2143	882.1445	0.109711	-378.785747	-378.779105	-378.778161	-378.816871	25.1	
N	-0.0883026833	 1.3134522857	-0.2284476901	-0.517519
C	-0.0328277985	 0.0568785161	-0.0038848098	 0.386651
N	 1.1529789051	-0.685089289	 0.0937347662	-0.398201
C	 1.2935316607	-2.0398956371	 0.333230244	 0.415313
O	 2.3881003424	-2.5550292117	 0.3925613974	-0.355966
C	 0.003542263	-2.824659506	 0.5140050309	-0.400015
C	-1.2587968339	-2.0265851923	 0.4084458575	-0.079656
C	-1.2668301365	-0.7144392964	 0.172377943	-0.068895
H	 0.8428019357	 1.7229359171	-0.3303907818	 0.210348
H	 2.030525749	-0.1938660521	-0.0214935709	 0.251196
H	 0.0165797226	-3.6386861948	-0.2227006918	 0.157874
H	 0.0685237997	-3.3303220284	 1.4864517448	 0.157886
H	-2.1933125331	-2.565534102	 0.5338044433	 0.116234
H	-2.1790594029	-0.1363069291	 0.0958814673	 0.124749
86.9364	136.9698	329.4253	370.4149	489.5526	526.0743	530.8716	532.8446	635.8537	690.9723	714.3242	816.8215	879.5908	906.9085	954.0505	966.7642	978.346	1020.4216	1136.9011	1176.4033	1206.0834	1296.2879	1349.2949	1387.5237	1416.5501	1434.8078	1441.6135	1686.7161	1735.6404	1809.3378	3030.0484	3052.1072	3173.8641	3223.0027	3450.5573	3583.6084
N=C1NC(=O)CC=C1	[NH]C1=C[CH]CC(=O)N1	
InChI=1S/C5H6N2O/c6-4-2-1-3-5(8)7-4/h1-2H,3H2,(H2,6,7,8)	InChI=1S/C5H6N2O/c6-4-2-1-3-5(8)7-4/h1-2H,3H2,(H2,6,7,8)
