19
gdb 74885	2.72715	1.55407	1.11202	3.3125	83.35	-0.2338	-0.0444	0.1894	1124.7834	0.160267	-385.925628	-385.917497	-385.916553	-385.958279	31.56	
C	-0.0025238566	 1.4953950991	-0.1542701846	-0.47453
C	 0.0048298738	-0.0002869377	 0.0009096597	 0.19611
C	-1.1063890539	-0.7580804434	-0.0550532054	-0.134654
C	-1.1205545358	-2.2309435734	-0.0075089587	-0.071783
C	-0.3404414438	-2.9997508429	-1.0732633411	-0.285785
C	 0.177475011	-2.9373892954	 0.3317034358	-0.041429
C	 1.3704780609	-2.0820916237	 0.699090006	-0.332697
C	 1.330663297	-0.6331248107	 0.2088377469	 0.300055
O	 2.3628889907	-0.00470482	 0.064824378	-0.32829
H	 0.6161386179	 1.7975143363	-1.005354894	 0.142146
H	-1.0173823376	 1.8732270748	-0.302768556	 0.111317
H	 0.4304831137	 1.9849319511	 0.7246015201	 0.134193
H	-2.0700080246	-0.2681245396	-0.186082304	 0.096905
H	-2.0504661196	-2.6818267002	 0.3223055747	 0.091419
H	-0.7579397521	-3.9369178371	-1.424564726	 0.117912
H	 0.1497007836	-2.4037710087	-1.8361447935	 0.125619
H	 0.0814741598	-3.8513979336	 0.9097497368	 0.093895
H	 1.4471164528	-2.0181371152	 1.7938108103	 0.12978
H	 2.3114465529	-2.5224850796	 0.354743285	 0.129817
82.5388	138.6816	166.9855	290.3641	309.2894	337.3981	393.8585	428.828	520.2199	560.5489	631.9953	688.5024	740.6143	787.3012	819.721	862.0608	895.868	931.4286	982.1681	1010.4832	1032.5857	1061.1625	1071.398	1077.9182	1118.5125	1129.8185	1136.5336	1216.693	1230.7154	1256.2827	1329.2369	1377.5288	1387.4925	1413.7833	1420.9884	1455.766	1471.4427	1485.3536	1489.4958	1693.0185	1758.6246	3018.1394	3038.2172	3080.9692	3094.2511	3120.4496	3130.5963	3137.3563	3148.3697	3165.5062	3222.0748
CC1=CC2CC2CC1=O	CC1=C[C@H]2C[C@H]2CC1=O	
InChI=1S/C8H10O/c1-5-2-6-3-7(6)4-8(5)9/h2,6-7H,3-4H2,1H3	InChI=1S/C8H10O/c1-5-2-6-3-7(6)4-8(5)9/h2,6-7H,3-4H2,1H3/t6-,7-/m0/s1
