18
gdb 63243	2.29797	1.76455	1.28966	3.9812	73.36	-0.2417	0.0026	0.2444	1037.4686	0.147651	-439.117635	-439.108882	-439.107938	-439.151112	32.939	
C	 0.1501026652	 1.4858865516	-0.0046032178	-0.421671
C	-0.0130914895	-0.0593589117	-0.0337080226	 0.054242
N	-1.4173416558	-0.4830905882	-0.008341816	-0.550512
C	 0.6657846312	-0.6256564617	-1.2576373167	-0.03225
C	 1.9268513415	-1.031873569	-1.2278004224	-0.114787
C	 2.724611729	-0.9881671573	 0.0354153276	-0.113389
O	 1.9388736037	-0.9300959232	 1.2351823532	-0.240481
C	 0.6360591731	-0.5936731232	 1.2531381665	 0.446666
O	 0.0247353595	-0.6728101029	 2.2866841663	-0.346914
H	 1.2016469924	 1.7905651035	 0.010645672	 0.121811
H	-0.3094533456	 1.9181117378	-0.9000185106	 0.116778
H	-0.3471294539	 1.8948750596	 0.8797817109	 0.135365
H	-1.738020415	-0.4393702775	 0.9553862432	 0.247585
H	-1.9806998935	 0.1682144566	-0.54709718	 0.221631
H	 0.0686443684	-0.6705424133	-2.163327131	 0.102362
H	 2.4339283621	-1.4124545907	-2.1090360822	 0.107338
H	 3.3408373493	-1.8879275978	 0.1394657028	 0.136751
H	 3.4117466279	-0.1297013726	 0.0447288669	 0.129475
50.6205	123.1615	222.1521	241.2249	252.1077	270.0107	342.4608	368.7189	473.3931	496.4653	508.4701	565.2824	671.9062	718.4091	749.1395	836.3767	894.9409	922.2115	944.1904	973.8864	992.592	1030.8834	1056.3164	1068.8472	1134.4159	1172.5698	1220.1006	1243.4688	1256.7616	1363.2715	1388.5431	1412.6474	1430.5657	1486.8776	1493.8791	1505.0082	1633.1545	1741.5757	1828.9771	3003.7146	3028.4349	3063.1328	3100.5947	3116.6967	3167.8042	3189.5408	3486.1369	3569.8662
CC1(N)C=CCOC1=O	C[C@@]1(N)C=CCOC1=O	
InChI=1S/C6H9NO2/c1-6(7)3-2-4-9-5(6)8/h2-3H,4,7H2,1H3	InChI=1S/C6H9NO2/c1-6(7)3-2-4-9-5(6)8/h2-3H,4,7H2,1H3/t6-/m1/s1
