19
gdb 69987	3.00098	1.72806	1.59636	1.8576	72.75	-0.2512	0.0891	0.3403	936.1863	0.16153	-423.010494	-423.003541	-423.002597	-423.041386	29.05	
C	-0.0072891939	 1.491092748	-0.0033804535	-0.493309
C	-0.0359589698	-0.0178419454	 0.0337807082	 0.345526
C	-0.8604499964	-0.7588032838	 1.0659948299	-0.350403
C	 0.6421274326	-0.8393429536	 1.1157528463	-0.089933
C	 1.3237972612	-1.9288369514	 0.2671071238	 0.173981
O	 0.3552761371	-2.8495749999	-0.2478467199	-0.277333
C	-0.2369919796	-2.1532138432	-1.3627210857	-0.108623
C	 0.4256067029	-0.7750376597	-1.2385917229	-0.028095
O	 1.7600549584	-1.2097879953	-0.8757975547	-0.251647
H	 0.9475399888	 1.8550471995	-0.3990731146	 0.127735
H	-0.8089594921	 1.8956432677	-0.6325543197	 0.117561
H	-0.1340766598	 1.9095572422	 1.0000612854	 0.117635
H	-1.3419540493	-0.1401435268	 1.8182048969	 0.107229
H	-1.41114012	-1.6552867673	 0.8113347626	 0.131569
H	 1.203578119	-0.3810040499	 1.9228065456	 0.087797
H	 2.1443586106	-2.4776263196	 0.7266901247	 0.092714
H	 0.041448816	-2.647745786	-2.2998947017	 0.108261
H	-1.3265339793	-2.1388696383	-1.2661188036	 0.105501
H	 0.4589481937	-0.1756817771	-2.147009277	 0.083834
179.0893	219.9683	281.6874	313.6399	374.4422	427.3147	513.2278	608.652	626.5085	688.0404	781.0725	792.0565	838.5299	883.2735	889.6522	903.1467	948.968	966.3134	974.8807	980.8697	1008.2251	1030.1695	1041.6321	1073.2789	1093.4738	1117.4696	1136.2994	1192.2865	1231.2295	1250.9896	1272.5837	1306.7763	1316.5598	1321.9265	1370.4711	1393.8626	1418.7379	1488.4842	1492.292	1500.4258	1520.263	3023.1135	3037.0428	3083.8047	3086.9623	3100.3468	3129.5677	3137.9088	3142.4923	3170.1217	3223.303
CC12CC1C1OCC2O1	C[C@]12C[C@H]1[C@H]1OC[C@@H]2O1	
InChI=1S/C7H10O2/c1-7-2-4(7)6-8-3-5(7)9-6/h4-6H,2-3H2,1H3	InChI=1S/C7H10O2/c1-7-2-4(7)6-8-3-5(7)9-6/h4-6H,2-3H2,1H3/t4-,5-,6-,7-/m0/s1
