19
gdb 58058	1.80228	1.63039	1.0184	5.1155	76.43	-0.2674	0.0211	0.2886	1222.489	0.15793	-419.183123	-419.173578	-419.172634	-419.217688	34.909	
C	 0.0419375978	 1.5124510891	-0.1958319363	-0.414563
C	 0.0299778769	 0.0132530318	 0.1144705778	 0.145548
O	 0.5876386746	-0.2706020097	 1.377646541	-0.431524
C	-1.4016182099	-0.5879996147	 0.0358225869	-0.169765
C	-1.3407938403	-2.0561629215	 0.0955790491	 0.324137
N	-1.315067136	-3.2107468303	 0.1108748963	-0.325633
N	-2.1788730522	-0.0854562839	 1.1760355781	-0.086254
C	-3.1784658	 0.9487722812	 0.8982642148	-0.222424
C	-3.5971136099	-0.437789335	 1.229159764	-0.218706
H	 1.0683204258	 1.8811451583	-0.1294542808	 0.134939
H	-0.3349178186	 1.7184555075	-1.2038018481	 0.109852
H	-0.5640076065	 2.0697176488	 0.5244893523	 0.12601
H	 0.6502764709	-0.5102218081	-0.6216367646	 0.104788
H	-0.1094738534	-0.0833783636	 2.0225842676	 0.28939
H	-1.8598388755	-0.3210568507	-0.9313259288	 0.108141
H	-3.2479675343	 1.7401810065	 1.6381771304	 0.131584
H	-3.2962765682	 1.276664616	-0.1324697745	 0.124691
H	-3.9963607861	-1.0491412239	 0.4233888625	 0.134339
H	-3.9764144053	-0.6815110679	 2.2163064822	 0.135449
77.6431	84.502	142.5273	165.3633	192.0865	253.057	317.154	334.3791	384.3031	409.0298	478.2045	522.241	553.0226	630.1166	781.3488	856.5746	873.8679	901.0154	919.4927	982.2113	1007.4675	1052.863	1067.7433	1108.8598	1119.1444	1128.9986	1144.3921	1175.9406	1179.0643	1273.6821	1305.7246	1320.2409	1345.6724	1378.4874	1402.7186	1434.5542	1490.2742	1493.667	1497.934	1520.7835	2364.1356	2965.0897	3037.5277	3052.4113	3106.2115	3110.4508	3115.3013	3128.1281	3192.2245	3208.1159	3737.4281
CC(O)C(C#N)N1CC1	C[C@@H](O)[C@@H](C#N)N1CC1	
InChI=1S/C6H10N2O/c1-5(9)6(4-7)8-2-3-8/h5-6,9H,2-3H2,1H3	InChI=1S/C6H10N2O/c1-5(9)6(4-7)8-2-3-8/h5-6,9H,2-3H2,1H3/t5-,6-/m1/s1
