14
gdb 68698	2.02285	1.86229	1.13692	5.1469	68.99	-0.2705	-0.0558	0.2147	1052.735	0.098517	-436.67576	-436.667562	-436.666618	-436.708696	29.784	
C	 0.0310547792	 1.530781975	 0.0266984764	-0.495357
C	-0.0894998123	 0.0468458618	 0.1176672808	 0.317755
C	-1.3356947837	-0.8401359718	-0.0731528599	-0.410168
C	-0.7243143923	-1.8009773716	 0.9835213631	 0.383111
O	-1.1193100754	-2.7511872943	 1.5784078787	-0.267432
C	 0.5242808435	-0.9067308759	 1.1058644932	 0.139553
O	 1.0140178532	-0.772974422	-0.2492324902	-0.286532
C	 1.4236078421	-0.6977547102	 2.1919207831	 0.199162
N	 2.1180082652	-0.5377704514	 3.1027233669	-0.333167
H	 1.0105537773	 1.8567558079	 0.383858784	 0.15912
H	-0.084949625	 1.8548830037	-1.0128014834	 0.150333
H	-0.7470976164	 2.0159538666	 0.6227062786	 0.145171
H	-2.2696458198	-0.4125171568	 0.3034920975	 0.148321
H	-1.4796099357	-1.2299791011	-1.0822667887	 0.150131
104.357	119.2009	153.1909	188.8919	278.8904	354.5917	391.8722	428.2341	529.9261	561.019	599.4614	611.0045	640.2603	726.7266	832.3587	843.5711	943.7406	986.2758	1035.3062	1080.959	1143.1407	1181.5358	1195.6001	1277.5148	1402.825	1432.0101	1458.3393	1478.206	1489.5917	1916.9638	2355.6731	3045.4032	3071.3402	3112.8826	3135.9395	3137.0153
CC12CC(=O)C1(O2)C#N	C[C@]12CC(=O)[C@]1(O2)C#N	
InChI=1S/C6H5NO2/c1-5-2-4(8)6(5,3-7)9-5/h2H2,1H3	InChI=1S/C6H5NO2/c1-5-2-4(8)6(5,3-7)9-5/h2H2,1H3/t5-,6+/m0/s1
