15
gdb 125744	3.29738	1.28318	0.93443	4.8891	76.25	-0.274	-0.062	0.212	1193.3284	0.111876	-416.830955	-416.822368	-416.821424	-416.864399	30.313	
C	 0.0060461739	 1.5046055868	-0.0298985914	-0.50089
C	 0.0033620934	 0.0118258839	 0.0240479501	 0.334776
N	-0.0312472795	-0.6964403504	-1.0814975671	-0.180396
O	-0.0239422632	-2.0252551087	-0.7038782978	-0.216249
C	 0.0157659679	-2.0803253985	 0.6469129641	 0.287247
C	 0.030213493	-3.3540817131	 1.2626358637	 0.236772
N	 0.0431112428	-4.3783895851	 1.8021470097	-0.333484
C	 0.0351584217	-0.8261219359	 1.1843528757	-0.008088
C	 0.0786957738	-0.4211546811	 2.6198250565	-0.519618
H	 0.9043583573	 1.9115489867	 0.4460943624	 0.144614
H	-0.0238201626	 1.8412863367	-1.0673723048	 0.160744
H	-0.860059895	 1.9166220386	 0.4985332028	 0.144606
H	 0.9697481292	 0.1788696693	 2.8345956352	 0.146974
H	-0.7926147815	 0.1873345236	 2.8856413292	 0.14692
H	 0.0934988388	-1.2954808929	 3.2743251918	 0.156074
113.5704	125.8966	137.1982	144.6803	228.3895	263.9106	313.7981	385.1299	500.8965	513.4833	582.2715	663.2489	684.8364	725.1163	740.2245	954.7802	978.6911	1035.5679	1051.3417	1078.2778	1124.1705	1198.3099	1281.7187	1409.5926	1420.8023	1443.0244	1472.0537	1478.1684	1486.0684	1495.7573	1529.5676	1655.5977	2349.5642	3036.7755	3042.5833	3089.9646	3098.5858	3128.8992	3145.2232
CC1=NOC(C#N)=C1C	Cc1noc(C#N)c1C	
InChI=1S/C6H6N2O/c1-4-5(2)8-9-6(4)3-7/h1-2H3	InChI=1S/C6H6N2O/c1-4-5(2)8-9-6(4)3-7/h1-2H3
