19
gdb 127051	5.33389	0.7714	0.68681	3.6165	79.02	-0.2303	0.0284	0.2587	1641.4896	0.160342	-419.222809	-419.213731	-419.212787	-419.258243	32.041	
C	 0.3705111378	 0.9772039589	 0.9408177754	-0.388957
C	 0.0081018523	-0.0459194502	-0.1210613313	-0.026239
O	-1.2972061899	-0.5276265508	 0.1438112634	-0.257653
C	-1.7355015639	-1.4993634221	-0.7830266441	-0.178095
C	-3.0761721202	-1.9945665626	-0.3425913746	 0.364096
C	-4.0914127768	-2.6692935691	-0.9930228447	-0.319363
C	-5.0682949453	-2.8838914151	 0.0030378588	-0.002023
N	-4.701514529	-2.3810239239	 1.178943924	-0.233362
N	-3.4840386866	-1.8572844391	 0.9413511199	-0.224764
H	 1.3749887236	 1.3710590536	 0.7608240952	 0.120807
H	-0.3368726957	 1.8110304249	 0.9283702169	 0.131788
H	 0.3502374989	 0.523248279	 1.9357640974	 0.12691
H	 0.0432276217	 0.4068923245	-1.1255532975	 0.093244
H	 0.7260089875	-0.8829696131	-0.1183487385	 0.092052
H	-1.8008813752	-1.0789760448	-1.7995672419	 0.110429
H	-1.0098567895	-2.3306479683	-0.8294543305	 0.10906
H	-4.1197881985	-2.9612795089	-2.0304952679	 0.097653
H	-6.0238101615	-3.3787322382	-0.092194327	 0.108239
H	-2.9888601298	-1.3603286347	 1.6624763967	 0.27618
34.0255	71.7877	102.1209	113.7394	240.6518	257.0816	282.0204	356.365	490.0989	571.3305	656.2138	703.0365	738.976	797.0722	821.7236	890.6309	908.0788	940.8115	1032.2087	1039.7476	1046.8165	1061.9439	1128.3776	1144.3869	1162.4258	1188.3934	1242.918	1244.7881	1296.9441	1299.6914	1345.0906	1381.36	1403.2768	1427.6038	1463.8381	1484.2441	1498.8932	1501.4793	1514.2438	1535.0295	1605.6377	2943.8978	2963.0671	2983.28	2989.4032	3045.9045	3120.5511	3123.1551	3242.0412	3265.7518	3679.8267
CCOCC1=CC=NN1	CCOCc1ccn[nH]1	
InChI=1S/C6H10N2O/c1-2-9-5-6-3-4-7-8-6/h3-4H,2,5H2,1H3,(H,7,8)	InChI=1S/C6H10N2O/c1-2-9-5-6-3-4-7-8-6/h3-4H,2,5H2,1H3,(H,7,8)
