18
gdb 89920	4.71173	0.85868	0.83177	2.1715	72.73	-0.2411	-0.0301	0.2111	1388.7636	0.146533	-439.044447	-439.035759	-439.034815	-439.078891	32.029	
O	-0.0733555468	 1.4391075484	-0.1510892162	-0.434403
C	-0.0028777371	 0.0458095266	-0.0901606298	 0.166173
C	 0.4396787961	-0.6281400265	 1.2699539759	-0.322492
C	-0.9352145842	-1.3079582835	 1.3281062325	 0.342495
C	-1.2834382364	-2.640694358	 1.931521878	-0.412021
C	-1.3506724257	-2.5841325627	 3.4486505759	 0.170093
O	-2.2846267587	-2.9710483547	 4.1004933487	-0.234112
N	-1.9164098585	-0.1880885165	 1.303094993	-0.38769
C	-1.3413390208	-0.7011501123	 0.0303204703	-0.155103
H	-0.7410012502	 1.6917435686	 0.5019897412	 0.291225
H	 0.6072187459	-0.2888170734	-0.9316132204	 0.093246
H	 1.2658815194	-1.3310648189	 1.1354493392	 0.104592
H	 0.6675824123	 0.0635576393	 2.0843348484	 0.108164
H	-2.2430127367	-3.0145502727	 1.5596621149	 0.121625
H	-0.5062338832	-3.3705151963	 1.6610633401	 0.129087
H	-0.4496919999	-2.146224213	 3.9352915053	 0.085452
H	-2.8509405856	-0.5844580001	 1.3985511919	 0.236806
H	-1.9879637899	-1.0773018843	-0.753950669	 0.096861
43.5941	70.2433	113.4794	189.3334	282.4255	323.8138	403.0205	439.8397	470.8811	524.3975	613.7657	672.9996	681.4301	804.9916	824.8794	875.422	917.795	947.7924	969.2895	986.5494	1025.4521	1043.0389	1081.6626	1113.6287	1129.3731	1149.2775	1183.5508	1211.8914	1245.7955	1274.2226	1303.3791	1317.8853	1361.6362	1418.4938	1430.168	1445.5851	1451.9356	1478.2663	1837.4901	2877.5893	3010.0357	3061.423	3084.9506	3095.2434	3123.2784	3183.9072	3477.933	3747.4857
OC1CC2(CC=O)NC12	O[C@H]1C[C@@]2(CC=O)N[C@@H]12	
InChI=1S/C6H9NO2/c8-2-1-6-3-4(9)5(6)7-6/h2,4-5,7,9H,1,3H2	InChI=1S/C6H9NO2/c8-2-1-6-3-4(9)5(6)7-6/h2,4-5,7,9H,1,3H2/t4-,5-,6+/m0/s1
