19
gdb 64793	2.49006	1.22181	0.96023	2.7438	82.09	-0.2546	-0.0586	0.196	1279.3014	0.15629	-385.85925	-385.849501	-385.848556	-385.894894	35.726	
C	 0.1311550874	 1.6087204335	 0.2024574633	-0.460458
C	-0.1360330837	 0.1582469839	-0.1535495584	 0.372217
C	-1.3760936738	-0.0706258347	-1.0207387324	-0.374913
C	-2.6509468965	 0.2963282686	-0.2756060937	 0.245706
O	-3.1635488447	 1.3930608858	-0.3462961869	-0.285114
C	-3.2198201168	-0.7439016357	 0.5697854749	 0.291454
C	-3.7055291082	-1.6128712162	 1.2473954496	-0.45065
C	 1.052583244	-0.7401804991	-0.4040328329	-0.316042
C	 0.2311588803	-0.9106716717	 0.8510834045	-0.293631
H	 1.017184184	 1.6948672816	 0.8385828453	 0.111965
H	 0.3044003471	 2.2083762012	-0.6986252072	 0.119111
H	-0.7132641751	 2.0565133027	 0.7356367956	 0.135887
H	-1.3291591495	 0.5606877396	-1.9145262995	 0.122883
H	-1.4241268943	-1.1197467472	-1.329508715	 0.109106
H	-4.143300054	-2.3678886197	 1.8543498717	 0.216567
H	 0.9734400174	-1.4995263859	-1.1749623326	 0.110715
H	 2.0411792265	-0.3022541127	-0.3145175193	 0.113518
H	 0.6625585723	-0.59196037	 1.7938664592	 0.113511
H	-0.4059291225	-1.7842431839	 0.9304300938	 0.118166
22.0165	75.2572	139.3515	172.2875	222.4854	253.4602	314.0865	319.9082	361.7582	420.1878	449.2108	605.3652	643.0452	652.7973	709.8134	747.8712	785.2718	801.0912	873.8304	930.408	931.7715	956.2498	972.9562	1042.8371	1065.9937	1081.2484	1110.8372	1138.2545	1187.5442	1234.716	1301.9543	1311.9751	1365.8933	1428.0007	1463.8432	1471.7433	1492.5149	1499.8769	1510.3512	1762.7256	2206.8882	3030.889	3041.0212	3094.1915	3097.3639	3109.8722	3128.7265	3137.4448	3208.1774	3224.2254	3493.6523
CC1(CC(=O)C#C)CC1	CC1(CC(=O)C#C)CC1	
InChI=1S/C8H10O/c1-3-7(9)6-8(2)4-5-8/h1H,4-6H2,2H3	InChI=1S/C8H10O/c1-3-7(9)6-8(2)4-5-8/h1H,4-6H2,2H3
