19
gdb 37635	2.78812	2.18228	1.97276	1.4862	75.5	-0.2329	0.0893	0.3222	830.0203	0.164262	-385.879915	-385.874081	-385.873137	-385.909692	25.995	
C	 0.0046924847	 1.5428649968	 0.2224309292	-0.214388
C	 1.3637717969	 2.1639784796	-0.1998811021	-0.210421
C	 2.3933429579	 1.0272882834	-0.2982271076	 0.063297
O	 2.2718087531	 0.2183110498	 0.8895361713	-0.264561
C	 1.2585602002	-0.7118411301	 0.5355589629	 0.064018
C	 1.6202439753	-1.2512065456	-0.8644616286	-0.092487
C	 0.5706506402	-0.3395777547	-1.4737787203	-0.090089
C	 2.0364434819	 0.0681038877	-1.4489718117	-0.064556
C	 0.0196864604	 0.0446013948	-0.0945632676	-0.047301
H	-0.1522035089	 1.6789506313	 1.2977125568	 0.104708
H	-0.8302451807	 2.0383837565	-0.2839042323	 0.093357
H	 1.288462853	 2.6612713255	-1.1739376066	 0.093356
H	 1.6911620421	 2.9156019589	 0.5242029672	 0.098444
H	 3.4207447111	 1.3949647364	-0.3565236678	 0.071472
H	 1.0811327858	-1.3897387927	 1.368922854	 0.075363
H	 1.9941153923	-2.2220219989	-1.1587130406	 0.087388
H	 0.0120511794	-0.4563327337	-2.3947973888	 0.080238
H	 2.5825050375	 0.106131144	-2.3828227063	 0.087357
H	-0.9240425123	-0.451874689	 0.143148379	 0.064807
211.5682	347.6416	393.2802	512.8234	575.3738	642.4126	681.2213	728.8749	767.4201	794.5693	805.4647	832.0879	853.4865	892.589	909.9911	918.6914	957.6585	973.4704	996.1127	1016.7367	1029.354	1055.24	1067.3875	1075.8694	1090.6116	1105.1143	1153.7102	1201.7031	1212.0836	1237.8888	1264.509	1282.4536	1300.1293	1302.8427	1335.3911	1348.263	1363.0837	1378.51	1389.7054	1478.6542	1497.3935	3033.8876	3043.1081	3071.0866	3078.4695	3080.6188	3092.1009	3132.2888	3179.1327	3197.7693	3212.8943
C1CC2OC3C4C(C24)C13	C1C[C@H]2O[C@@H]3[C@H]4[C@H]([C@@H]24)[C@H]13	
InChI=1S/C8H10O/c1-2-4-6-5-3(1)8(9-4)7(5)6/h3-8H,1-2H2	InChI=1S/C8H10O/c1-2-4-6-5-3(1)8(9-4)7(5)6/h3-8H,1-2H2/t3-,4+,5-,6+,7-,8-/m0/s1
