14
gdb 131649	3.73628	1.13046	0.90346	1.2383	72.84	-0.251	-0.0888	0.1622	1213.3777	0.098971	-469.949443	-469.940971	-469.940027	-469.983412	29.995	
O	 0.1239384385	 1.3971316624	 0.0185204023	-0.403548
C	 0.051710532	-0.0108130383	-0.0541108979	-0.14413
C	-1.3746668307	-0.5077948434	-0.0880734966	 0.405461
C	-1.8892556203	-1.3226274863	-1.0346564483	-0.284191
C	-3.2557879323	-1.7482063179	-0.9610207804	 0.394867
N	-3.8505597857	-2.5428698976	-1.7562999838	-0.497309
N	-4.0001160219	-1.1696882424	 0.1544007967	-0.104104
N	-3.5900990131	-0.4380779178	 1.009373385	 0.041903
O	-2.0759334111	-0.0466292254	 0.9473885875	-0.327693
H	-0.3740087003	 1.6710792444	 0.7969459649	 0.299752
H	 0.5593511502	-0.3156301211	-0.9729681137	 0.132295
H	 0.565917153	-0.4906723644	 0.7945395042	 0.117722
H	-1.2821380822	-1.6623670269	-1.8621260927	 0.13211
H	-4.8250262661	-2.6629002254	-1.4760670573	 0.236866
61.2355	71.7037	137.7296	179.6953	293.9502	340.7674	380.1001	410.3473	454.0418	510.1932	569.4241	677.8926	742.7068	772.0178	843.4754	869.1048	902.8677	970.5609	999.5328	1073.3019	1102.7319	1175.2174	1207.8515	1291.5821	1368.5582	1393.4501	1424.928	1488.14	1636.1308	1731.6342	1761.6216	2977.0961	3101.0314	3233.2601	3479.8269	3809.5402
OCC1=CC(=N)N=NO1	OCC1=CC(=N[N]O1)[NH]	
InChI=1S/C4H5N3O2/c5-4-1-3(2-8)9-7-6-4/h1,5,8H,2H2	InChI=1S/C4H5N3O2/c5-4-1-3(2-8)9-7-6-4/h1,5,8H,2H2
