19
gdb 89663	3.01727	1.28161	1.05523	1.8961	84.13	-0.2367	0.0224	0.2592	1204.1949	0.156004	-385.835158	-385.825801	-385.824857	-385.868773	35.506	
C	-0.0528390033	 1.5826313637	 0.0813798771	-0.410732
C	 0.0161208544	 0.0669364855	-0.0411664733	-0.033497
C	 1.1096139545	-0.5589866143	-0.9812349419	-0.333741
C	 1.671306283	-1.3102770617	 0.2371238445	 0.220323
O	 2.0185897292	-0.2971835621	 1.2090145692	-0.317906
C	 0.6495139731	-0.7087046722	 1.1371664413	 0.314268
C	-0.001328029	-1.2136120495	 2.3823253341	-0.501265
C	 2.3442702594	-2.5624352582	 0.2766158622	 0.18428
C	 2.8956436797	-3.631725228	 0.2691364434	-0.381624
H	 0.9208712923	 1.983751693	 0.3763275616	 0.134355
H	-0.3378169411	 2.0406753561	-0.8715548175	 0.115925
H	-0.7915125358	 1.8892976865	 0.8301501699	 0.113839
H	-0.9670678156	-0.3506535598	-0.2823293717	 0.077108
H	 0.6941119878	-1.2200974227	-1.7441050039	 0.114744
H	 1.8155371157	 0.1379529099	-1.4394077784	 0.111696
H	-0.2344092593	-0.3846496758	 3.060313639	 0.133369
H	-0.9368405512	-1.7309749499	 2.1475647629	 0.126413
H	 0.6644907219	-1.9059314996	 2.9038223257	 0.143356
H	 3.3895572042	-4.571797441	 0.2715825161	 0.18909
105.2013	121.8289	172.9315	183.4199	219.0661	239.8703	297.89	339.5668	431.5237	469.4724	536.942	561.2311	603.1421	628.1928	669.4821	688.7175	709.1725	792.1159	851.9701	904.1583	915.1275	1008.0407	1051.362	1076.6166	1101.9719	1121.0546	1183.2262	1199.2399	1210.7112	1228.5349	1296.6691	1353.7204	1400.0829	1404.8297	1454.2153	1477.2312	1483.6694	1491.957	1496.4146	1503.265	2237.0582	3032.0644	3034.698	3052.9586	3069.3564	3094.4816	3098.2519	3117.1555	3125.1244	3130.7538	3501.9939
CC1CC2(OC12C)C#C	C[C@H]1C[C@]2(O[C@@]12C)C#C	
InChI=1S/C8H10O/c1-4-8-5-6(2)7(8,3)9-8/h1,6H,5H2,2-3H3	InChI=1S/C8H10O/c1-4-8-5-6(2)7(8,3)9-8/h1,6H,5H2,2-3H3/t6-,7-,8+/m0/s1
