20
gdb 61867	4.4784	0.65908	0.64076	4.654	76.67	-0.2463	-0.0206	0.2257	1749.3692	0.167577	-440.337401	-440.32641	-440.325466	-440.375245	37.685	
C	-0.1539810532	 1.6895055243	 0.1738200347	-0.401432
C	-0.0293288301	 0.1652742969	 0.0382747407	 0.035718
C	 0.771774512	-0.4397653497	 1.2078301811	-0.290681
C	 2.2140800647	 0.0154272505	 1.2153549407	 0.159515
O	 2.7935997082	 0.4745860541	 2.1653655446	-0.24212
C	-1.406390652	-0.5034886773	-0.0778997546	-0.325993
C	-2.1091082863	-0.1745391629	-1.3968795458	 0.412553
N	-3.4693771537	-0.2694974899	-1.3616272035	-0.522177
O	-1.5045334035	 0.1259460645	-2.4087553104	-0.360267
H	 0.8295255129	 2.1658878504	 0.2368997122	 0.125169
H	-0.6746176739	 2.1122716092	-0.6887406946	 0.139028
H	-0.7068026325	 1.9589299077	 1.0819549979	 0.111994
H	 0.5000638446	-0.0502995239	-0.8977269673	 0.108384
H	 0.3249192652	-0.1998228951	 2.1785142028	 0.114935
H	 0.7884391095	-1.5354061777	 1.1059558774	 0.11385
H	 2.7342861265	-0.1156420773	 0.2363153333	 0.074005
H	-1.295921972	-1.5958687768	-0.0431019064	 0.124306
H	-2.0430917566	-0.2305716173	 0.7733947027	 0.102225
H	-3.9707133432	-0.542143612	-0.53508298	 0.258883
H	-3.9809326067	-0.1319367477	-2.2178971254	 0.262106
35.4783	55.2266	62.7042	102.6965	136.9764	151.6842	237.2037	244.4995	288.947	349.128	403.1417	483.3802	515.2463	522.9907	620.359	668.4376	777.641	847.1669	874.2025	914.8856	944.6412	989.6317	1029.3368	1074.6832	1118.4696	1139.3071	1157.5672	1201.9419	1257.736	1261.7956	1299.1659	1356.3176	1374.4405	1403.7659	1413.0504	1429.6419	1454.391	1466.0395	1494.8981	1506.5751	1617.4063	1793.6451	1835.5788	2847.8767	3004.394	3016.4861	3029.5173	3040.5779	3058.242	3083.6763	3096.0046	3124.2232	3603.5186	3741.3943
CC(CC=O)CC(N)=O	C[C@@H](CC=O)CC(=O)N	
InChI=1S/C6H11NO2/c1-5(2-3-8)4-6(7)9/h3,5H,2,4H2,1H3,(H2,7,9)	InChI=1S/C6H11NO2/c1-5(2-3-8)4-6(7)9/h3,5H,2,4H2,1H3,(H2,7,9)/t5-/m0/s1
