19
gdb 41086	3.30625	1.87066	1.60632	1.5464	77.85	-0.2256	0.0762	0.3017	897.1143	0.162628	-385.797231	-385.791162	-385.790218	-385.827182	26.912	
C	-0.0163963179	 1.4529755499	-0.2562434133	-0.162793
O	 1.3650950503	 1.6440544615	 0.2346398501	-0.367053
C	 1.2003126334	 0.3940233758	 0.8758488822	 0.520427
C	 2.01092585	-0.7583739706	 1.5771467135	-0.157313
C	 1.5631375442	-0.207655175	 2.9531664998	-0.250156
C	 0.3214307087	 0.2866534958	 2.1885895136	-0.090707
C	-0.3296527262	-0.855904108	 1.3216391699	-0.097007
C	 0.899441201	-1.8353132728	 1.3384123547	-0.194322
C	 0.0432827115	-0.0857235465	 0.0231380167	-0.107283
H	-0.7252063253	 2.036826239	 0.3382238231	 0.113859
H	-0.0882514051	 1.728471998	-1.3102558068	 0.116414
H	 3.0391099393	-1.0304398179	 1.3461350713	 0.072556
H	 1.4516466908	-0.9238905639	 3.7732778847	 0.088433
H	 2.1661475364	 0.6425074187	 3.2841947353	 0.106124
H	-0.3081021878	 1.0995097853	 2.5427365409	 0.073134
H	-1.3085537239	-1.2857987409	 1.5339231122	 0.064581
H	 1.0102380237	-2.3829375112	 0.3984227769	 0.097568
H	 0.8587797271	-2.5544507177	 2.1612484064	 0.098195
H	 0.2041703398	-0.6677858195	-0.887466571	 0.075343
277.5809	306.8461	339.0846	440.1841	489.0365	537.449	602.0864	706.9683	762.9194	802.1465	816.5168	841.1562	873.2599	895.9286	912.7891	922.5671	948.7469	974.1794	989.2205	1012.9751	1028.648	1049.8435	1073.9158	1082.0179	1105.0914	1125.7965	1154.4871	1174.3084	1198.8929	1206.0284	1222.4409	1246.4278	1250.6911	1268.4656	1306.0818	1306.9962	1337.0918	1351.4428	1487.8639	1502.6413	1509.2145	3045.0731	3054.065	3055.8703	3073.8117	3101.6888	3105.451	3109.0217	3120.2427	3134.8765	3145.1459
C1OC23C4CC2C(C4)C13	C1O[C@@]23[C@H]4C[C@@H]2[C@H](C4)[C@@H]13	
InChI=1S/C8H10O/c1-4-2-6-5(1)7-3-9-8(4,6)7/h4-7H,1-3H2	InChI=1S/C8H10O/c1-4-2-6-5(1)7-3-9-8(4,6)7/h4-7H,1-3H2/t4-,5+,6-,7-,8+/m1/s1
