15
gdb 56480	2.85445	1.10097	0.82299	5.0727	71.4	-0.2573	-0.0321	0.2251	1326.5993	0.110493	-453.925769	-453.916423	-453.915479	-453.960704	33.077	
O	 0.0685330925	 1.5123861418	-0.2217591382	-0.414822
C	 0.0478670545	 0.1238811501	-0.0597244223	-0.122361
C	 0.6359614407	-0.5798509074	-1.2016037782	 0.301381
C	 1.1043787615	-1.1964849983	-2.1213561606	-0.455549
C	 0.7644908499	-0.2295451502	 1.2803940734	 0.417598
O	 0.998014327	 0.6582798714	 2.0662111613	-0.333415
N	 1.0261212128	-1.5666254287	 1.4520228666	-0.329808
C	 1.5647339063	-2.2178244951	 2.565240231	 0.084865
N	 1.8052848387	-1.6476679074	 3.6678417055	-0.390638
H	 0.404077017	 1.8492997558	 0.6285879403	 0.302342
H	-0.9917862037	-0.2341447671	 0.0592756753	 0.125576
H	 1.5206082138	-1.717820683	-2.9484375154	 0.210395
H	 0.8835741398	-2.1366029836	 0.6302316208	 0.263703
H	 1.7324560035	-3.2778678985	 2.3384788689	 0.104578
H	 2.1893736658	-2.3212324699	 4.3287230515	 0.236157
58.1243	69.9734	123.198	169.4645	192.6498	242.6834	317.0856	380.1791	459.3572	473.557	538.5874	581.1603	613.2995	626.3433	639.6682	688.2096	825.8279	846.8216	926.0625	984.1619	1035.0781	1066.9158	1145.2654	1212.7846	1240.9742	1264.582	1347.7573	1430.2152	1439.5045	1556.8057	1738.222	1824.7043	2230.8626	2931.3434	3042.3391	3498.6114	3502.1424	3603.2929	3633.1614
OC(C#C)C(=O)NC=N	O[C@@H](C#C)C(=O)NC=N	
InChI=1S/C5H6N2O2/c1-2-4(8)5(9)7-3-6/h1,3-4,8H,(H2,6,7,9)	InChI=1S/C5H6N2O2/c1-2-4(8)5(9)7-3-6/h1,3-4,8H,(H2,6,7,9)/t4-/m0/s1
