20
gdb 108562	3.14659	1.48282	1.26334	2.2697	77.14	-0.2378	0.082	0.3199	1060.5651	0.173679	-403.120056	-403.112445	-403.1115	-403.152059	30.587	
O	 0.0133469996	 1.2518578	 0.4187971204	-0.420981
C	-0.052116985	-0.0233543719	-0.1961702415	-0.156237
C	-1.4648710906	-0.559564585	-0.1827526289	 0.320754
C	-2.5502708309	 0.2116756659	-0.9311465523	-0.307085
C	-3.7805463015	 0.093638718	 0.0026741062	-0.209131
C	-3.4114670777	-1.0870116996	 0.8939037625	 0.013066
C	-3.1483559036	-2.38822941	 0.0885083471	-0.262925
C	-1.6787469057	-1.995766318	 0.1340105062	-0.082592
N	-1.91823062	-0.9338199067	 1.1883225554	-0.196011
H	-0.3760020463	 1.1350645365	 1.2943273638	 0.290349
H	 0.299225152	 0.1092874979	-1.2252075712	 0.108288
H	 0.6199556743	-0.7414397612	 0.2977937704	 0.090298
H	-2.2383223685	 1.2494320473	-1.0689164477	 0.122299
H	-2.7387887038	-0.2146372533	-1.921571099	 0.103753
H	-3.8914055519	 0.998559662	 0.6093416576	 0.108261
H	-4.7202024897	-0.0669440951	-0.534476329	 0.101612
H	-4.0086749643	-1.1893243092	 1.7999609864	 0.078559
H	-3.3396837681	-3.2844031875	 0.6823852666	 0.113139
H	-3.6302580389	-2.4982834702	-0.8887366546	 0.0977
H	-0.8469317394	-2.6909606399	 0.2142279814	 0.086884
94.1012	145.0017	232.9187	299.0174	341.8174	367.1213	471.1206	504.1012	616.8969	631.4316	719.4375	761.5799	825.8132	845.4649	857.9459	889.3521	904.6727	953.3672	974.1053	1007.9534	1014.9817	1027.4933	1058.6425	1074.535	1101.5485	1131.8649	1168.1081	1181.8765	1205.0262	1247.9071	1258.1522	1272.6947	1279.9472	1315.7183	1343.2378	1352.3615	1383.1092	1420.2914	1433.7499	1479.7401	1490.266	1498.7768	1506.3534	2989.558	3043.3225	3046.1654	3053.8419	3070.6649	3090.3489	3104.7694	3109.457	3116.335	3140.1713	3782.0615
OCC12CCC3CC1N23	OC[C@@]12CC[C@H]3C[C@@H]1N23	
InChI=1S/C7H11NO/c9-4-7-2-1-5-3-6(7)8(5)7/h5-6,9H,1-4H2	InChI=1S/C7H11NO/c9-4-7-2-1-5-3-6(7)8(5)7/h5-6,9H,1-4H2/t5-,6-,7-,8?/m0/s1
