18
gdb 96714	3.47244	0.94593	0.7901	1.7912	77.53	-0.2425	-0.0728	0.1697	1455.463	0.144394	-439.06819	-439.058462	-439.057518	-439.104166	33.805	
C	-0.4123398682	 1.3836166808	 0.0135177425	-0.311174
N	-0.1261008356	-0.0416375232	 0.0447460981	-0.304243
C	 0.5931488315	-0.5996452493	-0.8314624753	 0.323722
O	 0.8819958008	-1.9261390079	-0.8035252963	-0.261572
C	 0.3214446504	-2.6784869155	 0.2498827663	 0.16414
C	-0.9331230609	-3.4526102694	-0.0236734692	-0.278752
C	 0.4056270424	-4.1591171573	 0.0859156878	-0.299485
C	 1.2778964624	 0.0025018355	-2.0330769069	 0.100074
O	 1.2093811357	 1.166887603	-2.3338340326	-0.241215
H	 0.498031062	 1.9922335494	 0.0456376408	 0.136039
H	-0.9535297914	 1.6743793473	-0.8936873777	 0.136277
H	-1.0295547785	 1.6280047341	 0.8818029419	 0.118851
H	 0.456035052	-2.2187960355	 1.2217972844	 0.117495
H	-1.6551821423	-3.5557987287	 0.7781702198	 0.123077
H	-1.3613407445	-3.360170625	-1.0150798927	 0.123528
H	 0.8479518536	-4.5254013119	-0.8335192496	 0.126816
H	 0.6157589138	-4.7603800201	 0.963004011	 0.121306
H	 1.8583943266	-0.7328673564	-2.6275134824	 0.105116
48.0486	50.5753	90.1816	150.8835	164.3807	226.6285	260.427	352.5365	362.0384	412.2859	466.1161	547.9431	721.7695	758.871	823.3494	841.9281	854.7683	977.6164	983.1434	1022.3123	1055.5018	1073.4768	1096.2266	1105.1097	1112.882	1151.9324	1187.0273	1191.2583	1232.6098	1270.8435	1387.6925	1419.689	1435.0938	1455.7303	1478.5646	1498.3084	1499.5066	1721.4515	1824.1764	2926.0772	3024.3388	3083.9519	3105.2863	3140.7319	3143.7478	3182.5961	3223.9346	3238.0739
CN=C(OC1CC1)C=O	CN=C(OC1CC1)C=O	
InChI=1S/C6H9NO2/c1-7-6(4-8)9-5-2-3-5/h4-5H,2-3H2,1H3	InChI=1S/C6H9NO2/c1-7-6(4-8)9-5-2-3-5/h4-5H,2-3H2,1H3
