17
gdb 18795	3.39601	2.40187	2.11219	1.7886	66.11	-0.2222	0.057	0.2791	732.859	0.144658	-363.801548	-363.795243	-363.794299	-363.831629	25.519	
O	-0.0186648198	 1.460723563	-0.1157007768	-0.426651
C	 0.000173552	 0.0590817634	 0.0249214679	 0.118085
C	 0.2348015357	-0.5778125519	 1.4161875344	-0.041961
C	-0.4785721742	 0.1548186459	 2.5635857429	-0.240243
C	-1.7741294723	-0.5397401335	 2.0998150614	 0.015172
C	-2.4381278919	 0.1056389842	 0.8683566609	-0.23968
C	-1.3808060878	-0.6127866376	 0.0132731036	-0.015145
N	-0.9740351717	-1.5040618554	 1.2011434921	-0.169436
H	 0.8887703022	 1.7782866713	-0.1598016942	 0.28698
H	 0.6568865931	-0.4090425009	-0.721190704	 0.074883
H	 1.2104144862	-1.029278205	 1.6117252809	 0.063997
H	-0.1485357082	-0.2053274907	 3.5409359605	 0.104816
H	-0.4531667102	 1.2477134587	 2.5518537885	 0.105762
H	-2.4242056132	-0.9684933865	 2.8653167556	 0.070868
H	-3.436199305	-0.3009263828	 0.6877361142	 0.105766
H	-2.4765228487	 1.1959237324	 0.8141879078	 0.116322
H	-1.7022635964	-1.0879276947	-0.9154051558	 0.070465
174.5804	226.6928	257.4387	362.7039	451.3503	573.2323	635.7685	670.1742	729.2845	834.832	838.2871	896.6478	912.7976	913.4454	942.1164	961.4976	994.0913	1026.698	1063.8377	1071.7129	1096.0705	1146.7136	1161.9114	1182.4503	1207.0623	1223.2917	1251.456	1258.9453	1283.6741	1302.7044	1319.0847	1362.7898	1364.5232	1425.4493	1470.4311	1485.7693	3004.3755	3056.5	3062.2295	3073.4791	3080.6013	3088.3725	3113.2329	3119.8588	3819.2727
OC1C2CC3CC1N23	O[C@H]1[C@H]2C[C@H]3C[C@@H]1N23	
InChI=1S/C6H9NO/c8-6-4-1-3-2-5(6)7(3)4/h3-6,8H,1-2H2	InChI=1S/C6H9NO/c8-6-4-1-3-2-5(6)7(3)4/h3-6,8H,1-2H2/t3-,4+,5-,6-
