18
gdb 95996	2.5944	1.53456	1.13007	5.0011	66.86	-0.2534	0.01	0.2634	1086.188	0.150162	-476.264115	-476.256163	-476.255219	-476.297002	30.514	
O	 0.1781846221	 1.30378305	 0.1131596877	-0.438316
C	 0.1194881521	-0.0986707868	-0.0353740681	 0.124271
C	 0.6887819964	-0.7279223933	 1.2428169945	-0.20926
C	-0.5362992519	-0.7930047745	 2.1638804952	-0.178263
N	-1.6555326287	-1.1952737698	 1.2789603885	-0.328071
H	-1.7047729956	-2.2064393187	 1.2348696286	 0.234875
H	-3.2013848049	-0.1569987834	 1.0889512639	 0.306328
C	-1.3510721464	-0.6460248076	-0.0633989408	-0.194371
C	-2.3602676793	 0.45298899	-0.4276347388	 0.454372
O	-3.4038838516	 0.5155896904	 0.3934985953	-0.359525
O	-2.2103881469	 1.1853926075	-1.3773511062	-0.372481
H	-0.3478562434	 1.6873215333	-0.6033877934	 0.30357
H	 0.6629760707	-0.4197360777	-0.9332543792	 0.075301
H	 1.0586903656	-1.7377963757	 1.0327852654	 0.096845
H	 1.5116504238	-0.1287255398	 1.6376678326	 0.124153
H	-0.441945537	-1.4942169974	 2.9956452454	 0.11108
H	-0.7489087931	 0.1990821559	 2.574766133	 0.134454
H	-1.452358482	-1.4228555925	-0.8281577835	 0.115038
73.0095	105.8091	202.9149	224.9536	317.3878	379.1095	437.7696	539.15	556.0839	595.2042	629.717	694.8827	794.7949	801.6211	858.3418	872.6437	918.4459	920.4664	937.725	985.7637	1013.8221	1029.8797	1100.146	1116.2109	1207.818	1216.0953	1236.7383	1248.6602	1275.9617	1324.3866	1349.1226	1358.7856	1367.1382	1426.6028	1442.557	1456.5574	1477.4267	1502.7261	1838.2575	3014.1289	3049.2009	3059.1383	3064.6842	3114.9362	3124.0021	3380.8519	3540.0074	3731.82
OC1CC[NH2+]C1C([O-])=O	O[C@H]1CCN[C@H]1C(=O)O	
InChI=1S/C5H9NO3/c7-3-1-2-6-4(3)5(8)9/h3-4,6-7H,1-2H2,(H,8,9)	InChI=1S/C5H9NO3/c7-3-1-2-6-4(3)5(8)9/h3-4,6-7H,1-2H2,(H,8,9)/t3-,4+/m0/s1
