18
gdb 16230	2.92057	2.24073	1.49375	1.6713	72.59	-0.2479	0.0145	0.2624	881.2233	0.154767	-347.799129	-347.791769	-347.790825	-347.83103	28.931	
O	 0.2610336105	 1.1842828179	-0.5135733889	-0.425063
C	 0.0795517881	-0.1457081181	-0.0311712887	 0.015352
C	 0.5734922202	-0.3352486441	 1.3824383925	-0.106342
C	-0.3594049806	-0.8349340302	 2.1907487917	-0.067156
C	-1.6584152484	-1.1154078871	 1.479077173	-0.34113
C	-1.3922265303	-0.618615535	 0.050441213	 0.320623
C	-2.4510715138	 0.1239524247	-0.7273765577	-0.306206
C	-2.0485915914	-1.2674140376	-1.1399529306	-0.310868
H	-0.1800216977	 1.7721613632	 0.1106637149	 0.273194
H	 0.6503608694	-0.7540864586	-0.7437954776	 0.090287
H	 1.5850353944	-0.0657033695	 1.6648486786	 0.097781
H	-0.2233182246	-1.0461734868	 3.2463345211	 0.096934
H	-1.8956353599	-2.1878973486	 1.5020932815	 0.110637
H	-2.5052489816	-0.6064570237	 1.9589656117	 0.104694
H	-3.4210899702	 0.2605818147	-0.2598178124	 0.10566
H	-2.1208921191	 0.9506955834	-1.3461258147	 0.123051
H	-1.4593569098	-1.3774426031	-2.045444558	 0.112896
H	-2.7445275151	-2.0807838815	-0.9588448494	 0.105655
38.955	239.5242	266.6502	287.7281	341.5253	394.3597	451.5748	515.0088	566.5196	723.9918	764.2214	787.5508	801.4514	882.7312	900.3366	949.0516	967.1289	982.2286	990.1175	1019.0288	1035.9319	1052.507	1072.8672	1084.3455	1135.5492	1187.3233	1196.872	1253.3918	1260.9046	1278.5338	1287.7909	1368.1384	1371.7963	1430.1205	1464.1704	1487.4793	1498.9809	1688.2779	3006.877	3028.4216	3029.8408	3117.5796	3128.3034	3179.9985	3198.6973	3207.2912	3220.8898	3792.4662
OC1C=CCC11CC1	O[C@H]1C=CCC21CC2	
InChI=1S/C7H10O/c8-6-2-1-3-7(6)4-5-7/h1-2,6,8H,3-5H2	InChI=1S/C7H10O/c8-6-2-1-3-7(6)4-5-7/h1-2,6,8H,3-5H2/t6-/m0/s1
