24
gdb 6105	4.03905	0.81724	0.78818	1.425	82.24	-0.2607	0.0737	0.3344	1607.0327	0.220796	-351.421383	-351.410571	-351.409627	-351.457555	39.214	
C	-0.0326891105	 1.5638234013	-0.0095269298	-0.387939
C	 0.0365750916	 0.0315539125	 0.0521826029	 0.041175
C	 0.874204152	-0.4179419936	 1.2581841416	-0.380509
C	-1.3805972188	-0.5695704617	 0.0617223318	-0.159686
C	-1.4468464014	-2.0900455196	-0.1166986474	-0.202748
C	-2.8812749644	-2.6360949612	-0.1169879477	 0.138234
C	-2.9337587477	-4.1398421067	-0.3889898592	-0.401698
O	-3.5673881806	-2.3096304086	 1.0918818355	-0.428686
H	 0.9682828504	 2.0065352687	-0.0490840487	 0.106228
H	-0.5857248928	 1.9037346626	-0.8915781207	 0.108163
H	-0.5391775495	 1.9683530363	 0.8752169848	 0.111805
H	 0.5438485454	-0.3175066264	-0.859774228	 0.066084
H	 0.3980333149	-0.1100432266	 2.1972427071	 0.109892
H	 1.0038241125	-1.5037986126	 1.2901813139	 0.109746
H	 1.8726070943	 0.0312279358	 1.2312701877	 0.108799
H	-1.8892230901	-0.2984776951	 0.9951378366	 0.102062
H	-1.9637666937	-0.102555288	-0.7439215732	 0.085519
H	-0.9599148879	-2.375944728	-1.0590596588	 0.09055
H	-0.8869981116	-2.5988056998	 0.6814579362	 0.082751
H	-3.4544317406	-2.1148576839	-0.8949395018	 0.085874
H	-2.3614511153	-4.6922697341	 0.3674387534	 0.103907
H	-3.9673884138	-4.4952745511	-0.3605982571	 0.122329
H	-2.5082481346	-4.3822847819	-1.3682803815	 0.114206
H	-3.1251124276	-2.7769998283	 1.8097095323	 0.273942
36.7078	73.4859	124.7089	137.7782	224.709	233.2295	251.4883	259.8682	285.1587	302.6118	391.3085	395.3568	444.9288	491.1214	501.6847	769.5011	813.0736	858.3746	923.3174	924.5574	941.0251	958.0305	966.7676	1031.2322	1052.1186	1080.6503	1113.8576	1151.346	1173.8444	1193.1329	1223.4267	1275.1167	1302.4071	1339.3399	1346.063	1370.0827	1373.5472	1394.8423	1400.5227	1404.8516	1421.4003	1422.7421	1473.2531	1486.7509	1489.526	1493.4403	1495.0211	1500.9676	1505.1661	1512.3115	2988.9277	3000.0126	3012.0905	3020.443	3022.026	3027.2612	3027.501	3040.0999	3064.3036	3086.2593	3091.5578	3092.6046	3096.6425	3103.2552	3117.0621	3792.3424
CC(C)CCC(C)O	CC(C)CC[C@@H](C)O	
InChI=1S/C7H16O/c1-6(2)4-5-7(3)8/h6-8H,4-5H2,1-3H3	InChI=1S/C7H16O/c1-6(2)4-5-7(3)8/h6-8H,4-5H2,1-3H3/t7-/m1/s1
