25
gdb 102461	1.88087	1.05454	0.79473	2.3934	89.63	-0.2367	-0.006	0.2307	1632.9311	0.225787	-389.529956	-389.51809	-389.517146	-389.568214	41.734	
C	-0.241771791	 1.3241442817	-0.1405245826	-0.394768
C	-0.0785598101	-0.1795196328	 0.1020313061	-0.179508
C	 0.8344148689	-0.5377546706	 1.3031955727	-0.060392
C	 0.2013230727	-0.1861992252	 2.6583071712	-0.17241
C	 1.159865536	-0.3573686864	 3.841133004	-0.394831
C	 1.1345643579	-2.0381375167	 1.2101139576	 0.387996
O	 0.3730702033	-2.8645965641	 1.6623992919	-0.326223
C	 2.4183985374	-2.4358775351	 0.4944434776	-0.285216
C	 2.5441752582	-3.934657336	 0.236209586	-0.377314
H	 0.7277019578	 1.8038916901	-0.3153465582	 0.114488
H	-0.8662475252	 1.506603732	-1.0207340263	 0.116271
H	-0.7148573216	 1.828799282	 0.7067177107	 0.124486
H	-1.0571211445	-0.6472339443	 0.2630489473	 0.115667
H	 0.3291604798	-0.6371470974	-0.8086972815	 0.095537
H	 1.7791157406	 0.0115803336	 1.1837208314	 0.066278
H	-0.1593953595	 0.847429862	 2.6319711328	 0.090936
H	-0.6733574968	-0.8301374081	 2.7980731312	 0.119182
H	 0.6743596953	-0.0838018734	 4.7828489056	 0.114297
H	 1.4942019887	-1.3956513898	 3.9335070449	 0.126311
H	 2.0482559703	 0.2752753123	 3.7306231563	 0.107886
H	 2.492314132	-1.8562989656	-0.4356002619	 0.11719
H	 3.2492514113	-2.0709638429	 1.1167141012	 0.12461
H	 1.7429750904	-4.2870849933	-0.4192915024	 0.126948
H	 3.5028467221	-4.1698015366	-0.2345827944	 0.108246
H	 2.4665369562	-4.4954100855	 1.1706437888	 0.134334
35.6327	68.9065	71.4071	96.8549	161.1526	175.7179	193.479	208.3483	244.7594	258.8221	307.7842	338.7599	408.6781	455.1082	562.4777	642.6728	744.2065	767.2423	801.9985	856.1308	866.1639	927.0828	992.478	1023.15	1026.691	1039.4135	1055.0678	1060.1616	1120.8695	1123.6276	1135.3736	1188.1638	1267.2817	1279.7199	1289.9277	1330.8485	1348.848	1365.9281	1372.6599	1394.6874	1409.7777	1412.6188	1413.7181	1449.6392	1478.5254	1486.9225	1492.4228	1497.9297	1498.5559	1500.3126	1505.334	1507.3844	1799.9538	3003.787	3012.3827	3019.5043	3030.3246	3034.1704	3042.3077	3044.9673	3050.468	3061.1372	3079.7839	3100.1534	3101.092	3107.611	3111.9612	3118.88	3129.2028
CCC(CC)C(=O)CC	CCC(CC)C(=O)CC	
InChI=1S/C8H16O/c1-4-7(5-2)8(9)6-3/h7H,4-6H2,1-3H3	InChI=1S/C8H16O/c1-4-7(5-2)8(9)6-3/h7H,4-6H2,1-3H3
