19
gdb 50911	1.97481	1.26721	0.81779	2.1975	82.31	-0.2503	-0.0243	0.226	1389.2293	0.156139	-385.848887	-385.83913	-385.838186	-385.884417	35.193	
O	-0.2248570932	 0.0172024609	-0.0625762513	-0.240283
C	-0.0694966175	 1.2081864883	-0.1278402624	 0.166662
C	 1.2702731098	 1.9106854776	-0.1222604241	-0.281041
C	 1.4014434653	 2.961154066	-1.256318983	-0.239388
C	 2.600807838	 3.7751554464	-1.0580825047	 0.322484
C	 3.600666832	 4.4212568875	-0.8921180277	-0.430779
C	 1.3994826262	 2.3019422162	-2.6315830667	 0.047696
C	 0.0979772776	 2.0070409173	-3.3367538136	-0.275909
C	 1.016210085	 3.0876530832	-3.8543762896	-0.272338
H	-0.9459110371	 1.8986549989	-0.1717357246	 0.06862
H	 1.3626476535	 2.4261154738	 0.8433628104	 0.131742
H	 2.0673917156	 1.1651157592	-0.1825018381	 0.131294
H	 0.5268798273	 3.6269721235	-1.2006589066	 0.104431
H	 4.4776768933	 5.0030128341	-0.7504804879	 0.196341
H	 2.1932148653	 1.5711511033	-2.7591004294	 0.098595
H	 0.0152107765	 1.080232411	-3.8926337509	 0.123147
H	-0.8264516815	 2.3199656029	-2.8620979307	 0.112818
H	 0.710304294	 4.1196345296	-3.7165543505	 0.117634
H	 1.5634964197	 2.9077632603	-4.7725370285	 0.118274
60.4043	68.483	98.1882	136.3926	162.4064	233.9861	293.1074	338.3472	417.5495	450.0254	510.6282	576.8876	634.0093	640.5282	738.3658	786.3085	830.403	857.4207	920.7366	944.1783	984.8527	1011.6121	1061.0018	1064.8152	1086.4102	1087.7497	1139.1987	1160.5561	1196.1561	1224.6184	1227.3549	1269.1609	1299.8719	1343.6817	1409.2163	1429.557	1459.1927	1470.9045	1506.004	1838.3076	2236.2055	2842.9022	2991.3297	3028.2276	3108.9893	3132.8042	3137.0989	3148.7523	3211.7562	3226.324	3504.2821
O=CCC(C#C)C1CC1	O=CC[C@@H](C#C)C1CC1	
InChI=1S/C8H10O/c1-2-7(5-6-9)8-3-4-8/h1,6-8H,3-5H2	InChI=1S/C8H10O/c1-2-7(5-6-9)8-3-4-8/h1,6-8H,3-5H2/t7-/m1/s1
