12
gdb 130529	3.8764	1.74024	1.20105	3.6981	75.86	-0.2498	-0.105	0.1448	913.6122	0.07765	-431.59131	-431.58489	-431.583946	-431.621998	24.611	
O	-0.160513385	 1.1525116938	 0.0101291725	-0.230157
N	 1.0994460318	 2.1242617708	 0.0027501306	-0.011182
N	 2.1996666747	 1.5952040062	-0.0108243431	-0.149226
C	 2.3530870639	 0.2359072659	-0.0193716291	 0.302455
C	 3.4686039143	-0.5521336639	-0.0340451957	-0.223792
C	 3.0108479322	-1.9253041636	-0.0368666237	-0.082802
C	 1.6371621616	-1.9821572824	-0.0246961608	-0.198225
C	 1.1780372167	-0.6247974484	-0.0122269841	 0.342266
N	-0.0413109231	-0.1648143963	 0.0021448576	-0.135312
H	 4.4978106577	-0.2231992337	-0.0421622944	 0.131753
H	 3.672817363	-2.7809489544	-0.0477231544	 0.123671
H	 1.0094114022	-2.8603585742	-0.0237552753	 0.130551
188.1427	204.2441	233.8425	370.3235	431.9583	556.4455	561.2217	590.9429	605.5282	749.5423	759.5683	804.8144	854.2535	875.843	891.3825	950.1033	1008.8984	1060.1895	1097.9961	1221.9347	1267.6839	1370.5178	1414.6352	1456.54	1587.0124	1613.1828	1627.765	3226.1949	3245.4056	3258.4224
O1N=NC2=CC=CC2=N1	O1[N]N=C2C=C[CH]C2=N1	
InChI=1S/C5H3N3O/c1-2-4-5(3-1)7-9-8-6-4/h1-3H	InChI=1S/C5H3N3O/c1-2-4-5(3-1)7-9-8-6-4/h1-3H
