19
gdb 50727	2.49593	1.50267	0.97574	2.388	79.23	-0.2472	-0.0134	0.2338	1202.4753	0.162323	-419.266557	-419.258358	-419.257414	-419.299614	31.047	
N	 0.9790636551	-0.1408010205	 0.2796608044	-0.475345
C	-0.1673767786	 0.3427085051	 0.0123957638	 0.086352
N	-1.308716259	-0.4552781014	 0.0524244045	-0.123464
C	-1.1219009491	-1.8773026785	 0.3882919765	-0.130557
C	-2.4210570744	-2.5628519258	 0.7911976551	-0.224841
C	-3.5146912168	-2.2639575922	-0.2322452821	-0.216517
C	-3.7680175191	-0.7562436709	-0.2580217661	-0.304704
C	-2.5245711411	 0.120201199	-0.326823518	 0.416346
O	-2.6019115335	 1.2846501732	-0.6650883753	-0.364751
H	 1.6856738856	 0.5892080795	 0.2096491812	 0.229939
H	-0.4010198383	 1.3699490194	-0.2649171826	 0.144787
H	-0.6777115861	-2.3828639403	-0.4791125783	 0.119602
H	-0.3748502969	-1.9236246659	 1.1830279451	 0.143683
H	-2.2319059498	-3.6375273132	 0.8755336414	 0.108998
H	-2.7379808206	-2.2141202332	 1.782329417	 0.107457
H	-3.1963916497	-2.6118138953	-1.2233001481	 0.107757
H	-4.4409313501	-2.795855277	 0.0065943146	 0.105071
H	-4.4065441672	-0.4478899457	-1.0895400186	 0.134519
H	-4.2946559402	-0.4529159963	 0.6570205154	 0.135667
80.4069	110.0515	174.9948	259.2147	290.5812	327.277	376.0115	456.8642	488.2135	562.9168	606.0028	651.3394	739.3469	826.1589	846.0275	893.5698	922.9636	932.4174	988.0734	1079.2366	1090.3532	1110.8155	1112.7004	1156.3347	1179.1981	1199.5874	1279.9648	1288.8117	1320.3047	1352.3708	1358.5893	1375.9779	1386.5357	1398.717	1430.1661	1461.9662	1490.1097	1500.0535	1521.9213	1706.5083	1777.4697	3022.733	3025.5352	3030.5945	3035.6741	3079.5637	3085.7164	3103.8259	3108.4336	3146.6045	3502.9044
N=CN1CCCCC1=O	[NH][CH]N1CCCCC1=O	
InChI=1S/C6H10N2O/c7-5-8-4-2-1-3-6(8)9/h5,7H,1-4H2	InChI=1S/C6H10N2O/c7-5-8-4-2-1-3-6(8)9/h5,7H,1-4H2
