18
gdb 63161	2.97397	1.42646	1.34427	1.004	72.24	-0.2281	0.0188	0.2469	1026.0238	0.148013	-439.077993	-439.069698	-439.068753	-439.11055	31.725	
C	 0.0410780319	 1.5992501567	 0.0476100898	-0.467829
C	 0.0549969477	 0.0900704039	-0.0286810119	 0.367429
O	-1.114120178	-0.5150232072	 0.4646310263	-0.458488
C	 0.6234264786	-0.676114866	-1.1882639183	-0.132889
C	 1.3952189726	-0.0204042946	-2.3104811153	-0.102791
O	 2.521863061	 0.7737769983	-1.8849517054	-0.232312
C	 3.0707064284	 0.5334973427	-0.6700035314	 0.110832
N	 2.6060270388	-0.1238982539	 0.307020436	-0.252485
C	 1.3273820434	-0.7391977491	 0.1550045676	-0.076265
H	 0.9080552277	 2.0534060472	-0.4330853482	 0.142723
H	-0.8619935167	 1.9782166464	-0.4415092864	 0.127199
H	 0.0237916693	 1.9311687988	 1.0924278096	 0.116462
H	-1.1658302939	-0.3277662432	 1.4091216282	 0.282558
H	 0.0478414939	-1.5446234018	-1.4921047006	 0.10626
H	 1.7842551989	-0.8007688601	-2.9750584835	 0.123753
H	 0.7759871837	 0.6548373744	-2.9098207299	 0.122188
H	 4.0335153799	 1.0348136855	-0.5967818764	 0.125193
H	 1.1974475028	-1.6332035278	 0.7555583998	 0.098462
111.6209	163.4986	175.9161	223.2136	257.211	325.3141	397.0755	406.6547	438.972	533.4671	566.868	645.6569	712.3298	804.2128	842.4434	871.8095	940.6807	957.5643	974.8626	1001.4297	1032.3061	1059.4294	1094.0914	1104.8534	1132.0084	1184.5018	1202.8153	1276.0112	1282.5961	1327.459	1345.3394	1396.4124	1416.1622	1422.758	1453.189	1489.0078	1503.258	1516.045	1718.9397	3032.1945	3034.6502	3072.1407	3094.4941	3147.8998	3159.639	3164.3398	3168.5043	3788.3865
CC1(O)C2COC=NC12	C[C@@]1(O)[C@H]2COC=N[C@@H]12	
InChI=1S/C6H9NO2/c1-6(8)4-2-9-3-7-5(4)6/h3-5,8H,2H2,1H3	InChI=1S/C6H9NO2/c1-6(8)4-2-9-3-7-5(4)6/h3-5,8H,2H2,1H3/t4-,5+,6+/m0/s1
