19
gdb 120023	2.5828	1.07018	0.84223	3.4607	73.6	-0.237	-0.0169	0.2201	1408.8105	0.156196	-460.147793	-460.137868	-460.136923	-460.183849	34.801	
C	-0.2921508634	 1.3125067146	 0.1965785094	-0.225483
O	-0.1187709543	-0.0789341936	 0.076425109	-0.235127
C	 0.5566885531	-0.4443980943	-1.1066317093	-0.072137
C	 0.7876669007	-1.9459682318	-1.0621702652	-0.116395
C	 1.2473590075	-2.6997115038	-2.3450051915	 0.074758
O	 1.8904660444	-1.7781723176	-3.2040406265	-0.428497
C	 2.2448867773	-3.5473902392	-1.4952215097	-0.371827
C	 2.0385264948	-2.5172857992	-0.3663743281	 0.393455
O	 2.6696344396	-2.2078158108	 0.5993239407	-0.287899
H	 0.6723099499	 1.8435068029	 0.2166112715	 0.108682
H	-0.8925162454	 1.7233767673	-0.631244798	 0.100814
H	-0.8161059559	 1.4961362365	 1.1376280895	 0.127533
H	-0.039636377	-0.184918612	-1.9974579936	 0.096292
H	 1.5141904688	 0.0903190444	-1.1920051142	 0.10505
H	-0.1042369324	-2.4258501198	-0.6421441281	 0.116022
H	 0.467142098	-3.26215629	-2.8706254421	 0.073185
H	 2.3240971001	-2.2706901589	-3.9079416599	 0.289561
H	 1.8537064606	-4.5326710683	-1.220641274	 0.12856
H	 3.2606642536	-3.6551142066	-1.88379059	 0.123452
45.3798	67.6323	82.443	131.3858	194.7239	229.7727	277.5383	287.9309	357.2631	408.1941	443.4843	523.348	550.1926	721.4787	759.6316	865.4583	884.4657	923.7555	985.8945	1002.1208	1048.889	1087.6442	1118.2638	1145.0668	1164.3802	1184.9686	1193.2774	1211.0507	1229.9042	1234.9248	1261.6731	1299.8729	1337.422	1409.4994	1416.3706	1431.7274	1479.6107	1484.3532	1501.6484	1522.542	1899.7187	2961.2291	2972.5304	3009.2128	3014.7054	3031.9491	3052.6976	3060.3701	3115.2417	3119.1753	3820.1409
COCC1C(O)CC1=O	COC[C@H]1[C@@H](O)CC1=O	
InChI=1S/C6H10O3/c1-9-3-4-5(7)2-6(4)8/h4-5,7H,2-3H2,1H3	InChI=1S/C6H10O3/c1-9-3-4-5(7)2-6(4)8/h4-5,7H,2-3H2,1H3/t4-,5-/m0/s1
