18
gdb 34870	2.22623	1.75251	1.20453	0.9174	81.7	-0.2405	0.039	0.2795	1071.2866	0.147444	-364.715758	-364.70776	-364.706815	-364.748127	31.684	
C	-0.0958752621	-1.2614568375	-0.084227849	-0.467025
C	-0.0556811568	-0.0606906525	-0.0190830509	 0.341123
C	 0.0263655068	 1.3863587227	 0.0566834766	-0.293113
C	-0.2550145317	 2.0899930612	 1.4059244143	-0.055015
C	 0.8017769283	 1.7590571011	 2.4178728542	-0.286713
C	 1.1092950271	 2.78319634	 1.3569088454	-0.126016
C	 1.4305970154	 2.0668185506	 0.0635342777	 0.371617
C	 2.7045200716	 1.5331544896	-0.4560260426	-0.309706
N	 2.0474811062	 2.7047760109	-1.0856222671	-0.383276
H	-0.1441412426	-2.3209768744	-0.136562498	 0.196301
H	-0.5823469552	 1.8409334444	-0.7338838354	 0.106332
H	-1.2199878206	 2.4954317519	 1.6807697677	 0.096521
H	 0.6259806558	 2.1565211294	 3.4122124239	 0.11511
H	 1.2904923005	 0.7883931478	 2.402196298	 0.121471
H	 1.3666463326	 3.811377809	 1.5760193521	 0.100906
H	 3.6395644201	 1.7535245792	 0.0516330596	 0.119009
H	 2.6743723523	 0.577650752	-0.9733754762	 0.121484
H	 1.5803228623	 2.4241650146	-1.9452255804	 0.230989
99.2423	130.3891	185.2894	277.8385	315.3773	354.4957	473.5439	479.9315	555.7211	606.901	622.8	636.6129	744.5849	791.4858	823.6884	867.9725	918.0341	926.4774	943.3223	969.4503	987.2309	1005.2771	1027.0283	1062.2963	1074.1001	1085.5447	1089.8384	1127.7311	1167.5794	1197.8772	1241.517	1259.7325	1300.0576	1320.0838	1345.6737	1427.5191	1488.4708	1514.1216	2228.6323	3037.5257	3106.8602	3116.6034	3192.06	3194.8758	3198.8287	3210.2298	3487.5841	3502.3009
C#CC1C2CC2C11CN1	C#C[C@H]1[C@H]2C[C@H]2[C@]21CN2	
InChI=1S/C8H9N/c1-2-6-5-3-7(5)8(6)4-9-8/h1,5-7,9H,3-4H2	InChI=1S/C8H9N/c1-2-6-5-3-7(5)8(6)4-9-8/h1,5-7,9H,3-4H2/t5-,6+,7-,8-/m1/s1
