16
gdb 13856	4.20429	1.45678	1.41826	3.7866	60.97	-0.2419	-0.0241	0.2178	940.0677	0.129402	-420.889548	-420.881423	-420.880478	-420.923426	27.878	
C	 0.2323668259	 0.8686378628	-1.0131896261	-0.485141
C	 0.0213771156	-0.0464158274	 0.1695889644	 0.378659
O	 0.7514050446	-0.0980424515	 1.1279996792	-0.292194
C	-1.2139366099	-0.9681960889	 0.100278612	 0.130028
O	-2.3744680068	-0.1854120624	-0.0295665225	-0.257024
C	-3.3018222586	-1.0015787845	-0.7375332017	-0.103886
C	-2.3988018532	-1.7539255302	-1.7204637597	-0.088072
O	-1.138186756	-1.7994306683	-1.0487224218	-0.276505
H	 1.1183821748	 1.4832752717	-0.8542879408	 0.139427
H	 0.3471591862	 0.2686679809	-1.9215055356	 0.152951
H	-0.6507375555	 1.4996243044	-1.1518348853	 0.151399
H	-1.2408224802	-1.588755835	 1.0103634655	 0.086696
H	-3.8134623052	-1.6920358465	-0.0517831164	 0.110309
H	-4.0390835121	-0.3527058159	-1.2135885453	 0.125512
H	-2.7408040087	-2.7734600997	-1.9235138738	 0.117477
H	-2.293275341	-1.2170405495	-2.6713180621	 0.110364
41.9323	56.9402	138.8336	179.5091	219.4926	275.124	421.8794	534.0032	580.4586	672.7604	741.2725	804.3884	893.5697	945.6242	960.4036	999.9558	1016.6213	1051.1974	1059.5333	1131.6256	1159.0213	1223.097	1244.3874	1254.6421	1329.16	1365.1619	1374.9817	1381.1429	1386.0786	1466.0619	1469.5376	1512.9995	1528.9187	1833.7364	2983.9737	3006.4662	3025.8799	3050.6257	3082.1267	3116.475	3119.7276	3161.5333
CC(=O)C1OCCO1	CC(=O)C1OCCO1	
InChI=1S/C5H8O3/c1-4(6)5-7-2-3-8-5/h5H,2-3H2,1H3	InChI=1S/C5H8O3/c1-4(6)5-7-2-3-8-5/h5H,2-3H2,1H3
