17
gdb 72161	2.72738	1.97216	1.81711	2.0227	65.21	-0.2489	0.0638	0.3127	841.4429	0.138908	-458.945527	-458.939354	-458.938409	-458.97565	26.747	
O	-0.06556495	 1.3640549589	 0.0239311808	-0.496679
C	-0.0130462041	-0.0251911869	-0.0487273331	 0.369375
C	 0.650032449	-0.7351191576	-1.2592676839	-0.278214
C	 0.6793108072	-2.0761462558	-0.5110608913	 0.03334
O	 1.6026704367	-1.7171963588	 0.5307738119	-0.241615
C	 0.7012319411	-0.8367260164	 1.1797776856	 0.079757
O	-0.2961135783	-1.7345997456	 1.6287660977	-0.235313
C	-0.7365364027	-2.0834755643	 0.306681795	 0.031536
C	-1.3773720281	-0.7415995252	-0.0810966317	-0.241796
H	 0.8239690685	 1.711308408	-0.100860411	 0.283245
H	 0.0319572981	-0.6861041094	-2.157628039	 0.103086
H	 1.6684355503	-0.4138581088	-1.487238037	 0.101377
H	 0.984617144	-2.9886615601	-1.0170457254	 0.08931
H	 1.1621987365	-0.2773794758	 1.9909918851	 0.095604
H	-1.3222801549	-2.9991985414	 0.3094415411	 0.089198
H	-2.0761859185	-0.4184365559	 0.6904972186	 0.117306
H	-1.8506545645	-0.691762415	-1.0634228434	 0.100483
265.0962	288.8254	323.1718	430.4866	531.3455	543.2054	603.1444	616.0047	630.7193	722.9626	745.2372	823.3749	844.0655	913.4533	920.9443	926.6986	929.9822	956.4319	966.9585	1016.6132	1052.5023	1067.0574	1106.2762	1118.5454	1125.1338	1208.8111	1221.9645	1236.4214	1245.1723	1258.3055	1267.3204	1297.7142	1324.0959	1346.0662	1393.8191	1478.7207	1512.1899	3071.5627	3083.7579	3129.0282	3145.3371	3153.3281	3158.4627	3162.7087	3810.469
OC12CC3OC1OC3C2	O[C@@]12C[C@H]3O[C@@H]1O[C@H]3C2	
InChI=1S/C6H8O3/c7-6-1-3-4(2-6)9-5(6)8-3/h3-5,7H,1-2H2	InChI=1S/C6H8O3/c7-6-1-3-4(2-6)9-5(6)8-3/h3-5,7H,1-2H2/t3-,4+,5-,6-
