18
gdb 73898	2.61021	1.15586	0.88453	4.3163	79.76	-0.2398	-0.001	0.2388	1318.266	0.146955	-401.973105	-401.96388	-401.962935	-402.008187	32.299	
C	 0.1209106074	 1.5201753894	 0.0645092874	-0.502305
C	 0.0189014746	 0.0341679935	-0.0452341398	 0.178161
C	-1.0525880705	-0.7587415404	-0.0926717248	 0.198806
C	-2.5064880451	-0.3759096779	-0.0227863353	-0.451699
C	-3.252377735	-0.7658870584	-1.2251161962	 0.265639
N	-3.8303740794	-1.0812612666	-2.1744966772	-0.307214
C	-0.620738426	-2.1979847459	-0.2117829273	-0.151577
O	 0.8000621866	-2.1678295414	-0.2202646872	-0.261079
C	 1.2556403482	-0.8256133702	-0.124987486	-0.135727
H	 0.6852234839	 1.8091130077	 0.9597341769	 0.137938
H	 0.6607738541	 1.937300258	-0.7943988021	 0.141977
H	-0.855942797	 2.0074237007	 0.1121764562	 0.128526
H	-2.9889846999	-0.8590121858	 0.8381457603	 0.161288
H	-2.6213469429	 0.7029159637	 0.1194143823	 0.1574
H	-0.980058363	-2.8100651758	 0.6325937385	 0.102589
H	-0.995506228	-2.6704090906	-1.133369646	 0.124807
H	 1.8733247473	-0.5717371336	-1.0021759673	 0.107881
H	 1.8972530847	-0.7055609661	 0.7636046477	 0.10459
41.4678	93.7608	107.9435	151.1193	194.873	254.4437	288.1999	353.935	382.8741	466.4593	529.7333	611.6503	699.8585	830.9048	888.5904	924.1587	945.5778	963.0586	976.2581	1051.5738	1088.8707	1092.5651	1120.2283	1173.7968	1193.2108	1227.0288	1242.994	1286.3607	1324.1817	1378.0944	1396.2174	1419.7119	1453.4505	1477.1077	1490.2086	1516.1927	1529.5063	1759.2328	2362.1678	2959.5647	2967.1587	2979.7908	2990.9627	3021.12	3025.0525	3072.445	3086.9947	3114.9967
CC1=C(CC#N)COC1	CC1=C(CC#N)COC1	
InChI=1S/C7H9NO/c1-6-4-9-5-7(6)2-3-8/h2,4-5H2,1H3	InChI=1S/C7H9NO/c1-6-4-9-5-7(6)2-3-8/h2,4-5H2,1H3
