22
gdb 95413	2.98577	1.20672	0.92558	1.8342	84.39	-0.2355	0.0196	0.2551	1338.5556	0.194545	-404.373334	-404.363952	-404.363008	-404.407351	35.429	
C	-0.1770521419	 1.5374379076	 0.0256205875	-0.404105
C	-0.0100971429	 0.0124858367	-0.005668928	 0.018871
C	 0.6025014025	-0.4606204259	-1.3282852598	-0.196828
C	 0.7006962101	-1.9858691491	-1.4654703333	-0.163845
N	 1.7169537716	-2.6584482045	-0.6665212912	-0.268694
C	 1.7314922422	-2.5876837506	 0.5946244929	 0.363714
C	 2.6780579671	-3.4121798355	 1.4198418691	-0.445652
O	 0.8942808912	-1.8469739866	 1.4007366457	-0.269635
C	 0.8259109115	-0.432875026	 1.1939081766	-0.070915
H	 0.792280957	 2.0435123877	-0.0544266516	 0.116994
H	-0.7966004191	 1.878699513	-0.809148526	 0.118638
H	-0.6522806247	 1.8709111576	 0.9542057272	 0.11411
H	-1.0010509207	-0.4512667977	 0.1002213181	 0.080013
H	-0.0076381325	-0.0842938398	-2.1589370044	 0.09369
H	 1.6025787714	-0.0226416551	-1.4523207695	 0.098002
H	-0.2825402085	-2.4240449363	-1.2346688931	 0.104305
H	 0.9109466079	-2.2278476087	-2.5122368377	 0.099584
H	 3.273482049	-4.0602342924	 0.777752102	 0.138973
H	 3.3374657939	-2.764822414	 2.0086805265	 0.128404
H	 2.1105405918	-4.0184462531	 2.1340213688	 0.137886
H	 1.8461666251	-0.0311642883	 1.1051506649	 0.097701
H	 0.3919275179	-0.0416685989	 2.1191341553	 0.108788
61.3105	154.1952	185.9318	207.7983	215.0563	253.8932	291.2788	300.214	365.4226	416.2183	429.1291	558.005	608.7967	684.0753	763.0349	834.2063	867.2955	893.6415	962.5115	968.9669	976.6069	1027.7333	1059.5681	1084.3212	1089.6898	1131.5887	1147.4055	1181.9242	1216.3863	1231.5876	1292.0867	1317.6473	1329.4873	1356.102	1379.5102	1395.5531	1404.7003	1407.391	1429.7902	1471.5621	1477.2589	1478.5952	1494.4824	1495.2736	1498.0999	1503.0544	1762.1288	2991.022	2996.4245	3008.8503	3016.2041	3028.8281	3039.8344	3056.0642	3061.8776	3080.5854	3094.2317	3094.5637	3104.9597	3161.5831
CC1CCN=C(C)OC1	C[C@H]1CCN=C(C)OC1	
InChI=1S/C7H13NO/c1-6-3-4-8-7(2)9-5-6/h6H,3-5H2,1-2H3	InChI=1S/C7H13NO/c1-6-3-4-8-7(2)9-5-6/h6H,3-5H2,1-2H3/t6-/m0/s1
