21
gdb 92635	3.2114	1.3099	1.0179	1.5186	85.59	-0.2331	0.0241	0.2572	1221.4235	0.184205	-387.082829	-387.074696	-387.073751	-387.115282	32.183	
C	 0.0105677473	 1.5939097741	 0.0511889497	-0.407185
C	 0.0085489744	 0.0740469095	-0.0132825342	-0.053822
C	 0.713609908	-0.6574752899	-1.2153230995	-0.272653
C	 1.2518713628	-1.7255911542	-0.2113621485	-0.054487
C	 2.7154236432	-2.1364998282	-0.1115293104	-0.111161
O	 2.9777658526	-2.518138549	 1.2362241794	-0.255202
C	 2.8678497222	-1.467115525	 2.1844986146	-0.095274
C	 1.7178768229	-0.5199957858	 1.9335229325	-0.269281
C	 0.9453661894	-0.7211140228	 0.8755325569	 0.322293
H	 1.029185445	 1.986207408	-0.0362449228	 0.114716
H	-0.5910851059	 2.0227950684	-0.7574623434	 0.115338
H	-0.4060383934	 1.9511552075	 0.9991936867	 0.118502
H	-1.0188913659	-0.303166164	 0.0764934364	 0.082781
H	 0.0792411463	-1.0054117729	-2.0337925036	 0.09819
H	 1.5240475494	-0.0448986896	-1.6230170409	 0.102647
H	 0.6026097778	-2.6078096259	-0.1815424937	 0.082367
H	 2.9714235941	-3.0081864811	-0.7207461988	 0.103435
H	 3.3635274498	-1.2982709322	-0.4160561405	 0.082453
H	 2.7774212301	-1.9616806529	 3.1596685696	 0.116416
H	 3.8055814448	-0.881378908	 2.2135444423	 0.093462
H	 1.626684695	 0.3430201943	 2.5881210281	 0.086464
105.3517	156.3321	215.9551	257.1354	271.4245	328.4435	384.5137	439.0763	473.8719	550.2511	644.3667	688.1386	782.7866	825.7046	836.7084	895.4064	908.9151	940.4641	973.6825	990.3988	1006.8163	1039.6798	1079.202	1104.3207	1126.5064	1143.2246	1151.0351	1168.7499	1223.8461	1245.9074	1254.0516	1266.8849	1293.7121	1307.8887	1353.2728	1361.5629	1383.4211	1405.0599	1409.1391	1483.5454	1488.7925	1493.4999	1498.1914	1501.19	1768.3718	2931.7209	2971.7406	3014.1849	3028.4879	3039.3602	3040.6478	3051.9936	3083.0756	3095.3108	3101.2828	3112.8138	3159.4158
CC1CC2COCC=C12	C[C@H]1C[C@H]2COC[CH][C]12	
InChI=1S/C8H12O/c1-6-4-7-5-9-3-2-8(6)7/h2,6-7H,3-5H2,1H3	InChI=1S/C8H12O/c1-6-4-7-5-9-3-2-8(6)7/h2,6-7H,3-5H2,1H3/t6-,7-/m0/s1
