13
gdb 20674	3.30321	1.92357	1.2249	5.2918	61.61	-0.2666	-0.0743	0.1923	913.9599	0.094828	-398.60046	-398.593231	-398.592287	-398.632401	25.131	
C	-0.0283412916	 1.5216824239	 0.0322426147	-0.513615
C	-0.0105432533	 0.0248558589	 0.0093248355	 0.071214
C	-0.0338324425	-0.8068405254	-1.0635804286	 0.009862
O	-0.0053993555	-2.0941782427	-0.6708710082	-0.151634
N	 0.0379478161	-2.1518911055	 0.6995514626	-0.165144
C	 0.0350161357	-0.8971778221	 1.1071936865	 0.21795
C	 0.0759309914	-0.5651330774	 2.5524587455	 0.096215
O	 0.1130645404	-1.3691201843	 3.4481750676	-0.234996
H	 0.8641104295	 1.9295014635	 0.5182139297	 0.145764
H	-0.0643576591	 1.9227164382	-0.9836146141	 0.138112
H	-0.899252284	 1.9076895335	 0.5721241425	 0.145771
H	-0.0691503803	-0.641701058	-2.1292893763	 0.160239
H	 0.0695005833	 0.5279018675	 2.7555498026	 0.080262
98.3063	127.8565	179.1849	227.8769	301.7185	308.3467	516.3832	624.1152	631.7358	689.795	800.4873	837.0925	944.6869	989.4811	1020.9914	1030.1891	1071.7255	1137.0727	1192.6715	1290.2829	1384.8116	1423.7443	1465.6019	1473.8792	1485.3675	1499.8176	1636.1478	1818.9449	2893.903	3039.8156	3094.6513	3120.681	3267.3941
CC1=CON=C1C=O	Cc1conc1C=O	
InChI=1S/C5H5NO2/c1-4-3-8-6-5(4)2-7/h2-3H,1H3	InChI=1S/C5H5NO2/c1-4-3-8-6-5(4)2-7/h2-3H,1H3
