14
gdb 54473	3.73519	1.37382	1.14976	2.6478	61.42	-0.2566	-0.0084	0.2482	1019.363	0.099327	-473.753637	-473.746111	-473.745167	-473.785811	28.674	
N	 0.4771345844	 0.3537179552	 1.0324579656	-0.539953
C	-0.0434655773	 0.1772094743	-0.2106999306	 0.284992
O	 0.4869318326	 0.5291751205	-1.2483715564	-0.363585
C	-1.3506057925	-0.534953499	-0.2336330609	 0.338983
O	-2.0967338914	-0.7803945122	 0.9645196716	-0.267478
C	-1.7298005229	-1.9007666165	 0.168293257	-0.100803
C	-2.7120591819	-1.9872393833	-1.0692825198	-0.007551
O	-3.6334528561	-0.906012712	-0.9732396255	-0.210354
C	-2.3264607357	-0.635580556	-1.4699915139	-0.06328
H	 1.323127389	 0.8913160917	 1.1247816183	 0.266866
H	-0.093180349	 0.1746868617	 1.8421879002	 0.274479
H	-1.1407915217	-2.6916980225	 0.6160742201	 0.127753
H	-2.9859221422	-2.8662469804	-1.6377255018	 0.123027
H	-2.1984069952	-0.1633812414	-2.4338706538	 0.136905
81.355	163.06	167.6216	324.0578	351.8023	419.1672	437.3227	499.3291	594.8982	625.4509	701.8157	741.409	780.6689	812.8006	826.3497	861.0872	905.8659	940.4387	977.8492	992.6506	1032.43	1081.6966	1107.1458	1193.1017	1213.1071	1252.8376	1320.5787	1375.3402	1455.3022	1604.3108	1790.154	3197.659	3208.9406	3230.4785	3596.8729	3734.3584
NC(=O)C12OC1C1OC21	NC(=O)[C@]12O[C@H]1[C@H]1O[C@@H]21	
InChI=1S/C5H5NO3/c6-4(7)5-2-1(8-2)3(5)9-5/h1-3H,(H2,6,7)	InChI=1S/C5H5NO3/c6-4(7)5-2-1(8-2)3(5)9-5/h1-3H,(H2,6,7)/t1-,2+,3-,5+/m0/s1
