20
gdb 100597	3.56545	0.86799	0.74925	3.1003	81.85	-0.2399	0.0089	0.2488	1560.9405	0.1704	-436.511818	-436.501202	-436.500258	-436.548734	36.586	
C	-0.2486071944	 1.7282006807	-0.4664650918	-0.376759
C	-0.0102939158	 0.266227053	-0.0803392957	-0.156025
N	-1.2460173561	-0.4904605777	 0.1221239493	-0.141558
C	-1.9728374988	-0.9732235517	-1.0406147777	-0.363346
C	-1.7350524725	-0.5796123306	 1.4015269389	 0.545313
O	-1.1713200912	-0.1023971053	 2.3733058513	-0.424759
N	-2.9411076212	-1.2707307001	 1.5256130642	-0.371957
C	-3.5706138432	-1.4511645515	 2.7424640752	 0.105284
N	-4.6661078426	-2.09445726	 2.8049754897	-0.480937
H	 0.7066744107	 2.2401484853	-0.6204287529	 0.119716
H	-0.8275759238	 1.8133036567	-1.3923386743	 0.112148
H	-0.7909861109	 2.2460226841	 0.3292741739	 0.140187
H	 0.5747663379	-0.2450980078	-0.8533794604	 0.100513
H	 0.5485347298	 0.2147302065	 0.8544305308	 0.149338
H	-2.1366508511	-2.0578445535	-1.0006200057	 0.137991
H	-2.9431726797	-0.4763628517	-1.1706721771	 0.13761
H	-1.3787345813	-0.7699465663	-1.9327238814	 0.143098
H	-3.4083870698	-1.6787389568	 0.7314846777	 0.256215
H	-3.0173211983	-0.9892967262	 3.561657766	 0.139892
H	-4.9937648677	-2.1334620473	 3.76797557	 0.228037
47.0833	47.6687	102.7201	120.208	160.3395	169.7584	200.7324	239.0547	333.5713	375.5309	405.0321	476.2262	552.4068	576.4832	645.253	763.0279	789.7575	826.241	854.7578	965.2216	1037.5572	1088.2608	1090.9021	1105.7642	1126.5842	1142.0304	1181.6738	1264.228	1310.1731	1324.322	1381.1583	1395.2256	1403.505	1411.6965	1463.9842	1477.6556	1491.1269	1496.6066	1501.8202	1519.24	1525.4703	1724.5865	1774.2058	3004.7802	3036.5163	3040.1538	3053.1194	3100.3397	3120.8514	3130.9338	3131.7783	3138.7614	3509.1972	3641.5114
CCN(C)C(=O)NC=N	CCN(C)C(=O)NC=N	
InChI=1S/C5H11N3O/c1-3-8(2)5(9)7-4-6/h4H,3H2,1-2H3,(H2,6,7,9)	InChI=1S/C5H11N3O/c1-3-8(2)5(9)7-4-6/h4H,3H2,1-2H3,(H2,6,7,9)
