17
gdb 60760	2.62146	1.16287	0.83219	3.196	74.1	-0.2456	-0.0541	0.1914	1347.2847	0.13387	-455.184359	-455.174596	-455.173652	-455.21986	33.61	
C	 0.556215834	 1.6657301962	-0.5992583735	-0.403551
C	 0.0260315439	 0.4663548394	 0.1833279834	-0.205875
C	-0.1034944221	-0.7751173621	-0.6858607928	 0.149218
O	-0.5106957843	-1.8461611695	-0.2986383098	-0.261447
C	 0.8644236364	 0.2240218783	 1.4739265176	 0.419371
O	 1.7198475082	 1.000382198	 1.8139587499	-0.305969
N	 0.483133312	-0.9141455654	 2.1602459513	-0.329514
C	 0.9777732682	-1.4030850111	 3.3680696529	 0.082828
N	 1.8002478336	-0.7885002912	 4.1098417221	-0.398691
H	 1.5749378042	 1.481728018	-0.951789585	 0.139493
H	-0.0809451723	 1.8716394933	-1.4647788038	 0.114261
H	 0.5874902859	 2.5519092245	 0.0347176931	 0.150874
H	-0.9948383591	 0.6684568976	 0.5409008003	 0.142547
H	 0.20056049	-0.6402075252	-1.7454684249	 0.107818
H	-0.1565424647	-1.5197575887	 1.6580791588	 0.269678
H	 0.5403268767	-2.3866676993	 3.5812180605	 0.099374
H	 1.9992180494	-1.3512190126	 4.9358515399	 0.229586
63.835	71.4415	118.0034	158.1444	167.4942	182.9513	243.8092	309.1793	337.3262	366.0314	497.231	584.9164	657.4749	707.2238	733.7695	829.6119	907.8157	934.8205	946.9407	1006.9061	1063.6008	1070.8859	1134.6965	1146.4098	1192.1076	1237.7869	1279.5293	1307.0891	1411.3648	1425.5051	1432.1983	1489.129	1493.2217	1575.6193	1737.1733	1798.5775	1832.2863	2913.6415	3009.6307	3036.1908	3051.3134	3119.1229	3152.9066	3494.8756	3532.3577
CC(C=O)C(=O)NC=N	C[C@@H](C=O)C(=O)NC=N	
InChI=1S/C5H8N2O2/c1-4(2-8)5(9)7-3-6/h2-4H,1H3,(H2,6,7,9)	InChI=1S/C5H8N2O2/c1-4(2-8)5(9)7-3-6/h2-4H,1H3,(H2,6,7,9)/t4-/m0/s1
