18
gdb 120369	3.19402	0.96164	0.77999	3.9538	74.05	-0.2175	-0.0031	0.2144	1428.2448	0.147647	-439.122365	-439.113317	-439.112373	-439.156937	32.78	
O	-0.0798783717	 1.494757008	-0.1159806112	-0.418757
C	 0.0417785428	 0.0827693474	-0.0575288219	-0.081855
C	-1.3642267946	-0.4966618741	 0.0256130761	-0.168887
C	-1.3807359221	-2.0333560793	 0.09542725	-0.185232
C	-0.9432029067	-2.6617958926	 1.3984970213	-0.145573
C	-1.9347800117	-3.4296475507	 1.8602566908	-0.025537
N	-3.0399694873	-3.4073197231	 0.9967491757	-0.325704
C	-2.816933348	-2.5730489544	-0.0837309075	 0.414612
O	-3.6030981544	-2.3219046545	-0.9674092062	-0.375104
H	 0.8029616521	 1.8718717785	-0.1694859927	 0.285968
H	 0.5511983407	-0.3133286037	-0.9519923256	 0.085482
H	 0.6340768016	-0.2280703718	 0.8186120802	 0.083887
H	-1.8694219864	-0.0777740908	 0.9028245418	 0.110474
H	-1.9344358552	-0.1860053399	-0.8559260394	 0.132722
H	-0.7899227087	-2.4249016126	-0.7463309538	 0.114489
H	 0.0177000885	-2.5227654171	 1.8695362653	 0.107857
H	-1.9768890818	-4.0328168771	 2.7560803456	 0.1294
H	-3.9223126271	-3.8638869523	 1.1566155416	 0.261758
69.2779	86.5118	110.3183	148.5606	255.6039	263.6191	291.21	363.7099	470.8597	509.354	585.9584	655.5298	692.2046	734.5413	788.6768	819.2776	883.6783	910.0713	949.3718	1027.2679	1062.3652	1082.0342	1092.3135	1102.8313	1146.0548	1198.2527	1212.299	1215.7824	1268.6784	1298.3347	1321.6569	1348.0443	1374.8134	1411.5755	1464.7244	1493.5444	1526.8394	1666.1931	1834.6308	2956.7165	2982.5597	3001.4338	3047.8495	3097.1285	3232.5814	3257.2125	3665.9459	3831.3329
OCCC1C=CNC1=O	OCC[C@H]1C=CNC1=O	
InChI=1S/C6H9NO2/c8-4-2-5-1-3-7-6(5)9/h1,3,5,8H,2,4H2,(H,7,9)	InChI=1S/C6H9NO2/c8-4-2-5-1-3-7-6(5)9/h1,3,5,8H,2,4H2,(H,7,9)/t5-/m1/s1
