12
gdb 49358	2.00967	1.61883	1.24481	5.6839	65.27	-0.2982	-0.0452	0.2529	1016.3781	0.076348	-431.662006	-431.653771	-431.652827	-431.69555	27.956	
O	 0.2689135872	 0.1993386585	-0.544557156	-0.249053
C	 0.2271062671	 1.3456002256	-0.2001784651	 0.164978
N	 1.2830651923	 1.9937162781	 0.4639259482	-0.080991
C	 2.6761024543	 1.9271375599	 0.1000130289	-0.170417
C	 3.0985941707	 1.3298299451	-1.145383101	 0.340049
N	 3.4902758944	 0.8566724074	-2.1235144099	-0.304482
C	 1.9033444027	 3.2468117529	 0.0902370447	-0.188489
C	 1.574740368	 3.8826383521	-1.1639306544	 0.324809
N	 1.2869941087	 4.421308262	-2.1449016505	-0.30058
H	-0.6564169976	 2.0012719865	-0.2873698054	 0.127181
H	 3.3651005513	 1.7671178618	 0.92555422	 0.169407
H	 2.0885139409	 3.93974422	 0.9073173804	 0.167588
86.6916	103.2357	108.2266	187.3936	242.9088	273.5099	325.887	457.8625	500.623	613.7295	634.171	654.3739	776.1984	885.8553	919.4927	1028.4071	1040.1579	1061.3309	1103.453	1136.2291	1343.986	1357.269	1402.3157	1412.8715	1827.3142	2364.2645	2369.5146	2996.1045	3146.6322	3153.0805
O=CN1C(C#N)C1C#N	O=CN1[C@@H](C#N)[C@H]1C#N	
InChI=1S/C5H3N3O/c6-1-4-5(2-7)8(4)3-9/h3-5H	InChI=1S/C5H3N3O/c6-1-4-5(2-7)8(4)3-9/h3-5H/t4-,5+,8?
