15
gdb 123713	3.19348	2.22642	1.50756	1.737	69.84	-0.2389	-0.0453	0.1936	830.4631	0.115725	-416.720084	-416.714047	-416.713103	-416.750337	24.301	
C	-0.1200065818	 1.5238972933	-0.0369010803	-0.179938
C	 1.4441875859	 1.6850826211	 0.0490811197	 0.051444
O	 2.0530234116	 2.1919433481	 1.236385018	-0.291049
C	 2.4647982925	 1.073425071	 2.0979774495	-0.143223
C	 1.6782998643	-0.1069196997	 1.5667788436	 0.005869
C	 1.3592513402	 0.2215986917	 0.2909420757	 0.120877
N	 0.0193974224	-0.0289747019	 0.0180436982	-0.0813
N	-0.5004415553	-0.7194539097	 1.1244014027	-0.205521
C	 0.4855450358	-0.7961282413	 2.0003235618	-0.050313
H	-0.6326678479	 1.8745085184	 0.8572682298	 0.153812
H	-0.6065950857	 1.8455845859	-0.9567844146	 0.141077
H	 1.9172673221	 2.12317427	-0.831073554	 0.104958
H	 3.5539137416	 0.9666794874	 2.0330965991	 0.121604
H	 2.1996570425	 1.3265477308	 3.1282708925	 0.126568
H	 0.3216700217	-1.3302570652	 2.9288610383	 0.125135
158.0805	269.5532	323.3236	373.4859	496.7069	609.5565	667.6842	707.8251	722.8857	778.7376	850.9987	861.6354	892.2869	922.3818	982.9033	987.7669	993.6019	1021.3336	1064.7853	1115.0432	1126.5778	1175.4101	1201.3383	1203.8983	1247.0033	1297.5687	1314.0899	1356.6272	1367.3577	1429.2326	1457.7126	1514.6289	1589.3378	3031.878	3090.1067	3094.7194	3099.7948	3186.1372	3213.33
C1C2OCC3=C2N1N=C3	C1[C@H]2OC[C]3[C]2N1N=C3	
InChI=1S/C6H6N2O/c1-4-3-9-5-2-8(7-1)6(4)5/h1,5H,2-3H2	InChI=1S/C6H6N2O/c1-4-3-9-5-2-8(7-1)6(4)5/h1,5H,2-3H2/t5-/m1/s1
