17
gdb 96712	3.01106	1.02401	0.81354	3.2753	78.3	-0.2701	-0.0482	0.2219	1410.9247	0.134089	-417.996457	-417.987076	-417.986132	-418.031652	32.865	
C	 0.0571896603	 1.3763257852	 0.4590929841	-0.343218
N	 0.0624678289	-0.0406462031	 0.1610378128	-0.299137
C	-1.0027399926	-0.657999275	-0.1146184478	 0.338732
O	-1.0633818483	-1.9697395477	-0.4151896162	-0.253957
C	 0.1622713017	-2.6799061351	-0.3792268163	 0.155179
C	 0.5014030543	-3.4344688905	 0.8699718138	-0.27943
C	 0.0225394448	-4.1644022162	-0.3710819693	-0.297112
C	-2.3335757981	-0.0706660185	-0.1690698569	 0.25314
N	-3.3638390554	 0.4526876515	-0.1934048492	-0.330816
H	 0.7094132682	 1.8899413474	-0.2555351569	 0.141465
H	-0.9348293653	 1.8451357651	 0.4311973511	 0.137344
H	 0.4918532761	 1.5293694941	 1.4527022653	 0.141801
H	 0.9511556417	-2.1977317297	-0.9436552319	 0.121446
H	 1.544303405	-3.5014746963	 1.1575907015	 0.125839
H	-0.1967950945	-3.3581055099	 1.6954339625	 0.129204
H	-0.9862256373	-4.5604505934	-0.3531577594	 0.134704
H	 0.7306642004	-4.745868628	-0.9499466873	 0.124815
48.4752	77.0566	133.44	134.8788	172.5306	247.8953	309.7765	336.5208	367.775	432.0148	523.6422	641.549	721.6256	751.6063	786.4435	828.5631	846.1818	976.8103	986.1021	1058.2802	1076.9514	1104.5088	1112.5955	1133.9831	1157.9035	1177.7395	1191.258	1235.2879	1292.6683	1390.9239	1446.3799	1456.3445	1484.6766	1498.4284	1502.041	1735.5445	2351.6819	3011.9742	3085.0262	3089.4095	3142.882	3145.7082	3186.0528	3226.6396	3240.3388
CN=C(OC1CC1)C#N	CN=C(OC1CC1)C#N	
InChI=1S/C6H8N2O/c1-8-6(4-7)9-5-2-3-5/h5H,2-3H2,1H3	InChI=1S/C6H8N2O/c1-8-6(4-7)9-5-2-3-5/h5H,2-3H2,1H3
