19
gdb 50817	2.44894	1.33043	0.93936	0.8251	79.1	-0.2588	-0.0176	0.2412	1260.0301	0.160739	-419.232224	-419.223496	-419.222552	-419.266241	32.147	
N	-0.113634411	 0.7081414849	-2.236410792	-0.510836
C	-0.1260676552	 0.2144902786	-1.0614274776	 0.331502
N	-1.348135019	 0.3628304827	-0.3754405817	-0.30394
C	-1.7659286733	-0.1426557458	 0.8286298313	 0.164452
O	-1.1237373408	-0.8200905975	 1.5985058369	-0.308702
C	 0.9976417127	-0.4719758482	-0.3353167362	-0.021184
C	 2.3800148636	-0.6179749456	-1.0240528172	-0.258133
C	 3.0425660516	-0.3531810038	 0.3555343132	-0.220186
C	 1.7087036079	 0.2741663742	 0.839383922	-0.219209
H	 0.7950041147	 0.5682985295	-2.6737318749	 0.225864
H	-2.0314875067	 0.8749666517	-0.9182717981	 0.260007
H	-2.8139094561	 0.1549061779	 1.0276268018	 0.092369
H	 0.6427035601	-1.4360560798	 0.035193462	 0.117471
H	 2.5937418379	-1.5605020804	-1.5326402502	 0.105502
H	 2.5827472506	 0.2071289153	-1.7145137018	 0.10172
H	 3.2640068896	-1.284541998	 0.8836713618	 0.11085
H	 3.9338399506	 0.27715578	 0.3706313908	 0.101206
H	 1.6950420792	 1.3577498767	 0.6875104905	 0.103613
H	 1.3536579136	 0.0446442075	 1.8431030697	 0.127634
73.0449	91.2378	140.2764	160.8935	228.966	280.2642	322.9139	386.2255	516.0715	591.4039	666.6418	716.3431	755.4535	790.9226	847.8451	870.9506	891.9321	931.573	936.6651	965.3596	1015.7525	1032.9636	1041.7121	1103.3578	1130.092	1200.9882	1202.6256	1237.221	1242.4946	1257.2754	1276.9873	1278.7544	1321.9322	1417.512	1452.3135	1477.7825	1489.6145	1494.0998	1510.072	1708.3256	1811.4811	2945.9623	3049.3349	3061.9422	3065.1689	3091.1405	3107.6847	3121.0764	3147.4209	3510.7475	3587.5751
N=C(NC=O)C1CCC1	N=C(NC=O)C1CCC1	
InChI=1S/C6H10N2O/c7-6(8-4-9)5-2-1-3-5/h4-5H,1-3H2,(H2,7,8,9)	InChI=1S/C6H10N2O/c7-6(8-4-9)5-2-1-3-5/h4-5H,1-3H2,(H2,7,8,9)
