20
gdb 71295	2.5813	1.96639	1.46294	0.922	77.78	-0.2172	0.0922	0.3094	971.903	0.172712	-403.106236	-403.098826	-403.097882	-403.137501	30.685	
C	-0.0141241542	 1.4449703612	-0.0749768019	-0.45354
C	-0.0246030995	-0.0659438947	 0.0166519828	 0.395203
C	-1.3684742216	-0.7155319478	 0.5238163182	-0.321666
C	-0.5681400726	-1.4244808235	 1.6238160524	-0.047959
C	 0.6872947848	-0.6747197967	 1.2491842567	-0.094501
N	 0.6256114903	-2.1143096295	 1.1645580318	-0.095131
C	 0.8045085296	-2.7556097762	-0.140892715	-0.157349
C	 0.3233884365	-1.9620167976	-1.3721108553	-0.098758
O	 0.4781727799	-0.560103204	-1.2177845026	-0.29785
H	 0.9958891927	 1.7968894254	-0.3076780729	 0.12583
H	-0.6863303292	 1.787172961	-0.8674002832	 0.123346
H	-0.3284979664	 1.8930308976	 0.8721699397	 0.115359
H	-2.0207873221	 0.054167728	 0.9450221967	 0.106171
H	-1.9559847196	-1.3251924829	-0.165370527	 0.101947
H	-0.9385024464	-1.6791138842	 2.6106439479	 0.094683
H	 1.4485613079	-0.1996072056	 1.860758	 0.083481
H	 1.8828748545	-2.9323193084	-0.2267290165	 0.113605
H	 0.3174649148	-3.7365689577	-0.1199474274	 0.106668
H	 0.9225274849	-2.2391407463	-2.2446522998	 0.106887
H	-0.7224777842	-2.2027456383	-1.6086075646	 0.093574
155.3031	231.7094	251.4422	303.4806	344.4489	386.1313	428.2509	520.1176	533.5234	620.2987	699.3434	721.7574	829.5215	837.1321	872.5013	875.8369	900.6055	925.3411	950.1105	967.913	1002.134	1045.7288	1070.5044	1105.3529	1124.4276	1143.3369	1165.8367	1187.4185	1220.155	1231.9526	1274.1517	1278.64	1296.4253	1314.8207	1363.6328	1394.7815	1406.7692	1409.1806	1479.7532	1482.3142	1484.8704	1493.5984	1520.1216	2998.825	3032.2488	3038.3709	3065.4701	3071.8836	3084.6841	3110.843	3113.6968	3117.9999	3151.5291	3175.7023
CC12CC3C1N3CCO2	C[C@]12C[C@@H]3[C@H]1N3CCO2	
InChI=1S/C7H11NO/c1-7-4-5-6(7)8(5)2-3-9-7/h5-6H,2-4H2,1H3	InChI=1S/C7H11NO/c1-7-4-5-6(7)8(5)2-3-9-7/h5-6H,2-4H2,1H3/t5-,6-,7+,8?/m1/s1
