16
gdb 52352	6.62761	0.51174	0.49555	3.7227	89.21	-0.243	-0.015	0.228	2106.914	0.122215	-400.721831	-400.711944	-400.711	-400.75808	34.173	
O	 0.4691508833	 0.9812394702	-1.4924861262	-0.319304
C	 0.2235966415	 1.5849358968	-0.4693508237	 0.14748
N	 1.0822118138	 1.7037495121	 0.5782612139	-0.26656
C	 2.405257629	 1.1047278409	 0.560320589	-0.157075
C	 3.4105614304	 1.9171694246	-0.2930735552	-0.380144
C	 4.7443839613	 1.3429670556	-0.26405447	 0.340935
C	 5.8470961374	 0.8462937581	-0.2144406334	-0.206755
C	 7.0878977582	 0.290045469	-0.1633112099	 0.288302
C	 8.189186354	-0.2032009089	-0.1164930257	-0.548501
H	-0.739197506	 2.1000840045	-0.2816282643	 0.080307
H	 0.8039560881	 2.2628396867	 1.3681377158	 0.253016
H	 2.7644086627	 1.0241005127	 1.5887893647	 0.12318
H	 2.3239682965	 0.0967471055	 0.1464045609	 0.153449
H	 3.0323506312	 1.9485197139	-1.3211505315	 0.169537
H	 3.4411243997	 2.9527327256	 0.0695226916	 0.13122
H	 9.1570141489	-0.6377043073	-0.078385406	 0.190913
42.0142	56.9194	72.7671	158.7957	182.9213	223.3019	273.6235	359.8334	381.3817	447.9033	503.1475	532.889	535.41	591.1252	597.2104	721.9567	747.9641	825.9391	975.4431	1011.2257	1035.6903	1081.6975	1177.9074	1202.6774	1243.2628	1301.4697	1333.781	1397.1637	1427.4145	1467.2098	1478.0743	1523.7176	1802.1686	2182.3276	2364.1031	2940.3345	3024.862	3069.6538	3074.069	3126.8926	3506.2376	3643.5122
O=CNCCC#CC#C	O=CNCCC#CC#C	
InChI=1S/C7H7NO/c1-2-3-4-5-6-8-7-9/h1,7H,5-6H2,(H,8,9)	InChI=1S/C7H7NO/c1-2-3-4-5-6-8-7-9/h1,7H,5-6H2,(H,8,9)
