22
gdb 115005	2.37708	1.35483	1.0941	1.653	82.19	-0.244	0.0266	0.2707	1246.7739	0.193477	-404.381614	-404.37193	-404.370986	-404.416112	36.453	
C	-0.0150235935	 1.6648944236	-0.1064023016	-0.390093
C	-0.2404884507	 0.156148569	-0.2480528455	-0.192989
C	 0.8019296398	-0.51612508	-1.1294443548	 0.08636
O	 2.1211979668	-0.3514718257	-0.5301777866	-0.238051
C	 2.7304915929	-1.5494256782	-0.6773470399	 0.104154
N	 2.0921320295	-2.5368432203	-1.1455484222	-0.291391
C	 0.7031766996	-2.0629959656	-1.382616305	 0.252171
C	-0.2169308482	-2.815543046	-0.4096582822	-0.41216
C	 0.297193477	-2.3590219039	-2.8298267186	-0.416958
H	 0.9636258273	 1.8703031179	 0.3353451411	 0.136019
H	-0.0546033897	 2.164252739	-1.0808569444	 0.114875
H	-0.7800011252	 2.1165664584	 0.5320355653	 0.113076
H	-0.2383929035	-0.3152439884	 0.7401698522	 0.107762
H	-1.2281009231	-0.0329455925	-0.6866653216	 0.10312
H	 0.8424261186	 0.0049983098	-2.0958613134	 0.080062
H	 3.7676557904	-1.5651889415	-0.3584288885	 0.134837
H	 0.0591981731	-2.626710797	 0.6312209503	 0.119037
H	-1.2656310353	-2.5343047594	-0.548016182	 0.110092
H	-0.1227861553	-3.8900157	-0.587490734	 0.127069
H	 0.3021994329	-3.436633221	-3.0148746744	 0.126065
H	-0.7096225467	-1.9783490562	-3.0366197782	 0.109543
H	 0.9934786035	-1.8911055123	-3.531928416	 0.117402
48.7783	104.2353	186.1431	222.9403	230.6383	262.9631	291.2312	310.402	321.1895	338.663	469.6716	496.2344	595.4361	609.0578	751.7272	801.2505	828.0105	886.329	931.6869	944.7315	963.7544	966.9093	993.6473	1016.5963	1064.7837	1106.4614	1123.6447	1148.8091	1202.61	1214.4215	1255.6691	1295.8442	1328.5591	1329.86	1370.0053	1397.3937	1407.7053	1413.2966	1420.1361	1469.3692	1480.3031	1488.296	1496.9065	1499.1592	1507.9193	1508.6538	1705.1415	3006.0321	3031.4909	3032.4716	3037.6333	3043.6575	3077.4011	3102.4708	3104.9872	3114.7855	3118.0893	3122.3306	3123.1854	3204.7928
CCC1OC=NC1(C)C	CC[C@H]1OC=NC1(C)C	
InChI=1S/C7H13NO/c1-4-6-7(2,3)8-5-9-6/h5-6H,4H2,1-3H3	InChI=1S/C7H13NO/c1-4-6-7(2,3)8-5-9-6/h5-6H,4H2,1-3H3/t6-/m1/s1
