18
gdb 76012	2.52939	1.19541	1.05773	3.6806	84.77	-0.2599	0.0066	0.2665	1224.2025	0.144898	-364.791112	-364.781241	-364.780297	-364.825493	36.05	
C	-0.1142691457	 1.5521249703	-0.0389845069	-0.426496
C	 0.0246263955	 0.0498012477	 0.0459720622	-0.042884
C	 1.3511943561	-0.6540569437	-0.2019876087	-0.239749
C	 2.5447439126	 0.1083772018	-0.4269466386	 0.301553
N	 3.5057130225	 0.728802774	-0.6048376606	-0.346446
C	 0.7063012974	-0.655955616	 1.2062802927	 0.087444
C	 1.3600436751	 0.1301218314	 2.3333308855	-0.461122
C	 0.1424366513	-1.9179351433	 1.6109299129	 0.26536
C	-0.3283051921	-2.9667477144	 1.9643714739	-0.422513
H	 0.7902689984	 2.0748180395	 0.2772521928	 0.144283
H	-0.3206388451	 1.8508838595	-1.071622088	 0.135422
H	-0.9462211324	 1.8974246302	 0.582974491	 0.130682
H	-0.8206072667	-0.4982762233	-0.3587918273	 0.112704
H	 1.3193001818	-1.5947223477	-0.739589369	 0.143331
H	 1.8643283734	 1.0257971654	 1.9682672768	 0.142633
H	 0.6078428047	 0.4270759112	 3.069852886	 0.13352
H	 2.1039485464	-0.4903304912	 2.8401794184	 0.142149
H	-0.743967133	-3.8926653714	 2.2769923669	 0.20013
108.0069	126.447	151.1668	158.3307	159.5398	177.7343	263.0325	326.9257	366.7038	428.5663	483.6197	529.9864	572.0622	602.6913	607.2176	654.4364	690.8713	770.5664	834.8287	944.7728	959.312	1011.6465	1027.4416	1091.8913	1119.5146	1132.9872	1150.2998	1246.8765	1290.4327	1355.6936	1405.3089	1425.1985	1427.9458	1479.8815	1490.129	1496.6557	1509.3946	2235.6326	2346.7946	3044.6225	3052.4001	3104.8632	3118.5861	3132.357	3144.6785	3161.8393	3181.7211	3501.3571
CC1C(C#N)C1(C)C#C	C[C@H]1[C@@H](C#N)[C@]1(C)C#C	
InChI=1S/C8H9N/c1-4-8(3)6(2)7(8)5-9/h1,6-7H,2-3H3	InChI=1S/C8H9N/c1-4-8(3)6(2)7(8)5-9/h1,6-7H,2-3H3/t6-,7+,8+/m0/s1
