24
gdb 123029	4.80868	0.57608	0.55524	0.7299	87.98	-0.2233	0.0928	0.316	2121.667	0.215296	-405.510389	-405.499419	-405.498475	-405.547927	38.874	
C	 0.3396394148	 1.2168557555	-0.0552644039	-0.383879
C	 0.1559257048	-0.1768715215	 0.5452549421	-0.038328
O	-1.198094126	-0.5545600044	 0.7083323669	-0.245952
C	-1.8561334814	-0.9301469916	-0.4829683806	-0.056407
C	-3.2478370675	-1.4268415239	-0.1049310736	-0.156068
N	-3.963174336	-1.816740708	-1.3123399754	-0.088172
C	-3.9711144789	-3.2324764301	-1.6748534116	-0.255149
C	-5.2183998175	-2.5630069127	-1.2075094167	 0.033597
C	-5.8613681573	-2.9214043653	 0.1148314201	-0.411321
H	 1.4017667955	 1.4833285895	-0.0671869931	 0.113182
H	-0.0280676446	 1.2712497078	-1.0841132354	 0.122452
H	-0.1967415653	 1.9611365329	 0.5408656418	 0.124891
H	 0.6873957989	-0.9262426785	-0.0646379529	 0.083962
H	 0.5903850118	-0.2062449548	 1.5504429501	 0.103556
H	-1.9502854589	-0.0918644349	-1.1879277028	 0.099112
H	-1.2971462826	-1.7302219552	-0.9980234835	 0.083771
H	-3.1393265457	-2.23569972	 0.6344443459	 0.091229
H	-3.7928671627	-0.610099208	 0.3816960204	 0.109329
H	-3.8129932877	-3.4627422088	-2.725491017	 0.110736
H	-3.5031234358	-3.9332652846	-0.9826716761	 0.103935
H	-5.9368791751	-2.2634157751	-1.9703267984	 0.087942
H	-5.1395509446	-3.2978356017	 0.8433478753	 0.122691
H	-6.3681398595	-2.0554283256	 0.5553474429	 0.123483
H	-6.6154702683	-3.700671681	-0.0385176745	 0.121406
32.8023	65.3501	89.3221	102.3011	136.5264	178.5874	210.0683	267.7902	304.4436	342.2816	387.1797	434.4551	471.1317	542.3557	754.5145	801.3852	813.6403	827.5985	889.0701	904.5914	950.2599	1016.0248	1031.9813	1053.384	1079.2131	1097.7598	1113.2294	1139.5707	1149.8563	1163.1273	1185.8481	1189.8162	1208.8056	1243.5859	1307.6874	1320.958	1338.4377	1353.4254	1396.5162	1402.0627	1414.7698	1420.771	1435.6453	1488.5179	1489.551	1490.1676	1493.9953	1500.5727	1508.0436	1515.9662	1529.3145	2958.633	2971.0219	2977.1622	3016.3596	3035.3213	3040.3268	3062.4903	3065.8465	3079.7939	3092.7065	3097.2437	3109.3339	3119.3233	3125.819	3168.3139
CCOCCN1CC1C	CCOCCN1C[C@H]1C	
InChI=1S/C7H15NO/c1-3-9-5-4-8-6-7(8)2/h7H,3-6H2,1-2H3	InChI=1S/C7H15NO/c1-3-9-5-4-8-6-7(8)2/h7H,3-6H2,1-2H3/t7-,8?/m1/s1
