19
gdb 52840	2.32631	1.11042	0.98028	2.0541	81.11	-0.2405	0.0369	0.2774	1354.3357	0.15546	-422.979878	-422.969274	-422.96833	-423.017054	36.668	
C	 0.0398159857	 1.4799443494	-0.0422961652	-0.500035
C	 0.0192879686	 0.0251691152	-0.0342150119	 0.018275
C	-0.0099218012	-1.1784032477	-0.0210289808	 0.163385
C	-0.0123668719	-2.6367248869	-0.0076966883	 0.151119
C	 1.0023291793	-3.2140601824	-0.9868400282	-0.4425
O	 0.1985980232	-3.1668925089	 1.3407955679	-0.302471
C	-1.1988032749	-3.4865204152	 1.4923350009	-0.110955
C	-1.4401900288	-3.2736976706	-0.0148483621	 0.044644
O	-2.4760484354	-2.4298939955	-0.4319943784	-0.419998
H	 1.022436071	 1.8657881752	-0.3353480007	 0.147198
H	-0.6986952373	 1.8801284137	-0.745752273	 0.150847
H	-0.1943288072	 1.8838227394	 0.9488342367	 0.150731
H	 2.0064317592	-2.8573276287	-0.7425736124	 0.135395
H	 0.9955900671	-4.3063669182	-0.9337108367	 0.114454
H	 0.76310438	-2.8996832583	-2.007274027	 0.128575
H	-1.3484156811	-4.4902630141	 1.9048773952	 0.097717
H	-1.7310418942	-2.7464677998	 2.1045886217	 0.105891
H	-1.4318005989	-4.2168457654	-0.5754645575	 0.078043
H	-3.2605682634	-2.9627628211	-0.5908324102	 0.289686
21.1416	69.3993	83.3224	128.5397	157.9548	207.089	240.9337	275.9652	302.0432	340.3135	397.9772	460.7037	505.6398	590.5756	618.0942	709.2562	862.1624	872.9131	931.4447	1006.5002	1046.2222	1051.5931	1053.9537	1083.5481	1109.7355	1139.9967	1172.0753	1185.7305	1204.3414	1293.2679	1306.5919	1327.8063	1397.2682	1412.8555	1442.3058	1476.5649	1477.2512	1478.1489	1488.681	1514.2758	2367.441	3012.908	3020.4775	3027.2775	3041.1028	3072.3987	3088.2789	3089.3525	3119.6413	3124.3487	3831.843
CC#CC1(C)OCC1O	CC#C[C@@]1(C)OC[C@H]1O	
InChI=1S/C7H10O2/c1-3-4-7(2)6(8)5-9-7/h6,8H,5H2,1-2H3	InChI=1S/C7H10O2/c1-3-4-7(2)6(8)5-9-7/h6,8H,5H2,1-2H3/t6-,7-/m1/s1
