21
gdb 100258	2.36947	0.97126	0.87576	2.6611	84.02	-0.246	0.0359	0.2819	1488.5009	0.178255	-424.191518	-424.179938	-424.178994	-424.229623	40.161	
C	 0.0781651194	 1.3581898816	-0.0297451141	-0.251153
O	-0.0447430793	-0.0366230776	 0.1927739372	-0.282144
C	-1.3626376083	-0.6091043559	 0.0568739819	 0.109535
C	-1.1220917573	-2.1243485055	 0.0236235626	-0.405622
C	-2.187687225	-0.2124938904	 1.3092064538	-0.065909
O	-1.4845265251	-0.5207637242	 2.4920821129	-0.428422
C	-2.051334245	-0.1625187108	-1.15786193	 0.066188
C	-2.6544181064	 0.19854589	-2.1365410252	 0.071412
C	-3.3791620857	 0.6235094054	-3.3255602724	-0.502466
H	 1.1412748629	 1.5888084419	 0.0730357948	 0.128073
H	-0.2573859376	 1.6369991063	-1.0352200196	 0.124676
H	-0.4819545683	 1.954881886	 0.7036149601	 0.110662
H	-0.6790652355	-2.4415966745	 0.9697897701	 0.130708
H	-2.0676725029	-2.6528326966	-0.1197819586	 0.120744
H	-0.446554866	-2.3747190571	-0.7964928105	 0.125839
H	-2.4421929824	 0.8566930379	 1.2523589754	 0.08963
H	-3.127059227	-0.7732293411	 1.32090922	 0.113468
H	-0.5687937352	-0.2622723518	 2.3232067352	 0.287269
H	-4.2977881978	 0.0406039834	-3.4538096195	 0.153774
H	-3.662338607	 1.6799560757	-3.2655567205	 0.150731
H	-2.7737451806	 0.4900963674	-4.2286393236	 0.153006
21.785	68.477	86.0262	94.6986	144.6307	208.6253	225.5904	256.8672	280.3318	300.4125	331.8452	357.64	421.0827	452.0776	478.2399	537.1008	586.6439	701.3813	842.2134	907.7473	932.7154	1051.6743	1054.2713	1055.7341	1084.0604	1099.7041	1141.3977	1171.465	1182.6856	1213.2566	1236.4107	1262.5686	1362.6929	1398.785	1413.5599	1429.1363	1471.6546	1476.2056	1478.4051	1481.7568	1486.5357	1489.4717	1511.2221	1513.9516	2361.4188	2988.719	3004.4319	3029.402	3057.4975	3068.4623	3085.0153	3091.34	3092.052	3118.4125	3137.1943	3145.7224	3762.5699
COC(C)(CO)C#CC	CO[C@@](C)(CO)C#CC	
InChI=1S/C7H12O2/c1-4-5-7(2,6-8)9-3/h8H,6H2,1-3H3	InChI=1S/C7H12O2/c1-4-5-7(2,6-8)9-3/h8H,6H2,1-3H3/t7-/m1/s1
