17
gdb 69340	3.21608	1.27056	1.09952	3.6402	73.29	-0.2682	0.0025	0.2707	1132.6183	0.134772	-417.97796	-417.969279	-417.968335	-418.011006	32.786	
C	 0.0336480248	 1.561266234	 0.0178730126	-0.487418
C	-0.0467363956	 0.0672641207	 0.0775355326	 0.348079
C	-1.3362524462	-0.7704339802	-0.0125981443	-0.356892
C	-0.7016377305	-1.7953288301	 1.001835291	 0.267844
O	-1.2864284016	-1.7818210648	 2.2817336859	-0.458442
C	-0.5401201534	-3.1700747858	 0.498831852	 0.22428
N	-0.4309140377	-4.242381793	 0.0796988072	-0.338381
C	 0.5750024174	-0.9316126853	 1.0182398103	-0.119928
N	 1.1049328298	-0.7347831777	-0.3180066381	-0.355297
H	 1.0457913312	 1.8951089603	 0.2591354758	 0.140649
H	-0.2097323604	 1.9239162796	-0.9876388104	 0.12747
H	-0.6676191691	 2.0213622729	 0.7213467172	 0.124654
H	-2.2012489665	-0.2980212313	 0.458716157	 0.122466
H	-1.6083241411	-1.1388376513	-1.0063272319	 0.113095
H	-2.1340807384	-2.2398182737	 2.2421585585	 0.295289
H	 1.2166871433	-0.8265498189	 1.885181816	 0.113606
H	 0.900302544	-1.4984822355	-0.9609517614	 0.238927
91.6747	140.9194	189.194	198.3838	293.5423	325.4905	337.9858	350.2841	434.9599	464.4168	520.4294	589.036	637.6848	673.4055	796.1691	832.1196	895.4555	939.6715	981.5582	1001.1602	1010.5838	1055.209	1084.9655	1109.3712	1146.5557	1183.1896	1213.5822	1238.1633	1252.8448	1282.6439	1360.9589	1402.1017	1448.6673	1474.4107	1484.8214	1493.3771	2343.5126	3033.4643	3053.7124	3095.2049	3120.122	3126.2925	3190.1241	3461.2569	3799.5852
CC12CC(O)(C#N)C1N2	C[C@]12C[C@@](O)(C#N)[C@H]1N2	
InChI=1S/C6H8N2O/c1-5-2-6(9,3-7)4(5)8-5/h4,8-9H,2H2,1H3	InChI=1S/C6H8N2O/c1-5-2-6(9,3-7)4(5)8-5/h4,8-9H,2H2,1H3/t4-,5-,6+/m0/s1
