17
gdb 39372	2.42408	2.23238	1.63903	2.4934	72.35	-0.2423	-0.0045	0.2378	876.0835	0.138547	-421.821863	-421.815274	-421.81433	-421.852484	27.201	
C	 0.0549045604	 1.4731345971	 0.0305112269	-0.129544
O	 1.2993215013	 2.1631138946	 0.0942574987	-0.255888
C	 2.2220592536	 1.7666382377	 1.0871807481	 0.155526
O	 2.7952403156	 0.5102355323	 0.7885547244	-0.233204
C	 2.0020256324	-0.4792053553	 1.4430397467	-0.022883
C	 1.4672194454	 0.2547953143	 2.6634814479	-0.079454
C	 1.5946916838	 1.5606018785	 2.4534490326	-0.141829
C	 0.8397383462	-0.9101340127	 0.5647666881	-0.058777
C	 0.0423284468	-0.0394072128	-0.0562701977	-0.062837
H	-0.5759418101	 1.7582288066	 0.8908073837	 0.10881
H	-0.4277320975	 1.8817798286	-0.8618968907	 0.118161
H	 3.010570276	 2.5216317012	 1.0393306229	 0.095513
H	 2.6523976892	-1.3250090151	 1.684131773	 0.087594
H	 0.9874007198	-0.2434337412	 3.495584145	 0.116424
H	 1.2498501617	 2.3724507595	 3.0796197864	 0.111506
H	 0.6594774889	-1.97643158	 0.457505576	 0.093136
H	-0.7766145034	-0.4303990634	-0.6571638319	 0.097743
182.4173	214.9035	317.3611	338.6401	427.0563	486.5057	573.2481	612.0715	685.0504	741.5256	748.227	826.6946	847.2011	868.4655	921.4253	937.2024	952.1877	965.3189	977.3645	985.4337	1006.9846	1028.0045	1086.7915	1122.4444	1129.7835	1236.183	1276.2823	1294.5442	1318.1979	1339.542	1363.9348	1381.0925	1403.255	1410.741	1478.6949	1666.0659	1709.4496	2952.9407	3069.3902	3080.8473	3090.9345	3140.5053	3168.7084	3213.2685	3238.4322
C1OC2OC(C=C2)C=C1	C1O[C@@H]2O[C@@H](C=C2)C=C1	
InChI=1S/C7H8O2/c1-2-6-3-4-7(9-6)8-5-1/h1-4,6-7H,5H2	InChI=1S/C7H8O2/c1-2-6-3-4-7(9-6)8-5-1/h1-4,6-7H,5H2/t6-,7-/m1/s1
