15
gdb 51077	3.03502	1.20379	1.01783	4.2791	66.68	-0.2576	-0.0339	0.2237	1157.2213	0.109483	-457.710065	-457.701785	-457.700841	-457.744277	29.349	
O	-0.3798348777	 0.4834496343	 0.7817542744	-0.236397
C	 0.0466302688	 1.0450177378	-0.191268149	 0.163761
C	 1.3463661183	 1.8418420406	-0.1982082758	-0.427496
C	 1.3190932551	 3.0007680454	-1.1454600976	 0.259265
C	 2.4082113954	 4.0406300208	-1.5182565808	-0.274262
C	 1.2935491009	 4.2003957105	-2.5781984147	-0.069967
O	 1.1717480942	 2.717821382	-2.6112750296	-0.331153
C	 0.2528621124	 4.1068995313	-1.4326725183	 0.44506
O	-0.7994875105	 4.5118178315	-1.0679007771	-0.30497
H	-0.4750146965	 0.997126907	-1.170716474	 0.107481
H	 1.5630787567	 2.1762439163	 0.8205450624	 0.147413
H	 2.152066662	 1.1569614023	-0.4985609993	 0.150415
H	 2.6081895204	 4.8652525531	-0.8294079317	 0.120954
H	 3.3121344623	 3.580770306	-1.9212307467	 0.126238
H	 1.2972324982	 4.7266198208	-3.5290213321	 0.123659
46.516	66.7714	122.8888	185.1988	230.3543	371.5374	408.8932	484.8946	521.1697	635.9932	703.5028	751.8826	794.094	822.5831	834.4494	901.2556	944.5136	976.3477	1019.9094	1038.5113	1064.3979	1127.8301	1172.0092	1199.6325	1210.1579	1231.1117	1282.9884	1372.4952	1424.7731	1433.2941	1476.3062	1838.8756	1936.1527	2913.5468	3023.9572	3066.9111	3101.8428	3150.737	3169.0256
O=CCC12CC(O1)C2=O	O=CC[C@@]12C[C@@H](O1)C2=O	
InChI=1S/C6H6O3/c7-2-1-6-3-4(9-6)5(6)8/h2,4H,1,3H2	InChI=1S/C6H6O3/c7-2-1-6-3-4(9-6)5(6)8/h2,4H,1,3H2/t4-,6+/m1/s1
