22
gdb 96387	1.95236	1.61804	1.16611	3.8832	85.12	-0.3025	0.037	0.3395	1186.5635	0.196536	-367.264312	-367.255471	-367.254527	-367.297474	34.372	
C	-0.0361895102	 1.5653713484	-0.0226624448	-0.419627
C	 0.0467383213	 0.0371713748	-0.0136374387	 0.031823
C	 0.6778315069	-0.5222138029	-1.2993298951	-0.193887
C	 0.7227697553	-2.0570321881	-1.3033541686	-0.201748
C	 1.4436818001	-2.6032465202	-0.0629271088	-0.193527
C	 0.8243356368	-2.0580746928	 1.2298885359	-0.216525
C	 0.7861498152	-0.5096456691	 1.2413315656	-0.144534
C	 2.1451223611	 0.0369123266	 1.3421857221	 0.288047
N	 3.2185750146	 0.4608353283	 1.416582181	-0.347312
H	 0.9597816388	 2.0154876604	-0.087003572	 0.14135
H	-0.6184328652	 1.9133662456	-0.8816035462	 0.116343
H	-0.5177537228	 1.9457936162	 0.8847206959	 0.112595
H	-0.974376382	-0.3631442375	 0.0620759941	 0.077631
H	 0.1135709303	-0.1568875017	-2.1650043981	 0.094767
H	 1.6958384097	-0.1222017034	-1.4004092561	 0.115866
H	-0.3037051007	-2.4490382701	-1.3283054698	 0.092494
H	 1.2142195823	-2.4160575308	-2.2140233664	 0.097794
H	 1.4113862047	-3.6979017629	-0.0524989973	 0.0975
H	 2.5035121405	-2.3210160012	-0.1006164644	 0.120155
H	-0.2104215246	-2.4100563394	 1.3247404178	 0.101769
H	 1.3685673492	-2.4221034609	 2.1067087649	 0.113015
H	 0.2474892985	-0.1729048991	 2.1359365491	 0.11601
99.5462	143.7323	165.8437	225.9821	260.0626	302.7227	329.7883	390.2867	419.5749	426.7199	521.7015	617.6699	628.1385	757.5038	811.4699	849.6783	855.3801	899.1359	927.512	978.4349	979.8336	1008.2626	1039.8728	1092.8158	1097.6524	1108.806	1144.508	1160.7179	1235.2898	1259.1964	1272.0858	1304.1623	1326.6172	1337.8971	1359.9287	1374.0255	1382.5882	1390.9737	1398.4633	1417.1552	1482.3865	1485.3694	1489.101	1496.8268	1500.0991	1502.5635	2347.6779	3001.0198	3010.5954	3021.4581	3026.4841	3030.8052	3032.7295	3038.2262	3064.4083	3068.6251	3075.8802	3085.2254	3099.8531	3108.4098
CC1CCCCC1C#N	C[C@H]1CCCC[C@H]1C#N	
InChI=1S/C8H13N/c1-7-4-2-3-5-8(7)6-9/h7-8H,2-5H2,1H3	InChI=1S/C8H13N/c1-7-4-2-3-5-8(7)6-9/h7-8H,2-5H2,1H3/t7-,8-/m0/s1
