18
gdb 6572	3.72198	1.67128	1.46204	2.3762	67.9	-0.243	0.076	0.3191	921.329	0.151613	-384.906779	-384.898559	-384.897615	-384.938519	32.341	
C	-0.1015376704	 1.5644600946	 0.0594525617	-0.449093
C	 0.0486582491	 0.0491665464	 0.0108091904	 0.42314
O	-1.2161134918	-0.5738918534	-0.1614595119	-0.47645
C	 1.1360862883	-0.5533964286	-0.9600269001	-0.362388
C	 1.7658959989	-1.2654241172	 0.2452876144	 0.409389
O	 2.2173762402	-2.5727538303	 0.2289779204	-0.463972
C	 2.1960242315	-0.2713506961	 1.2830477448	-0.356767
C	 0.7351968266	-0.6621387075	 1.1831589195	-0.129025
H	 0.8532240292	 2.0656312463	 0.2408847197	 0.116152
H	-0.4927935091	 1.9424834107	-0.8936828166	 0.104452
H	-0.8009194663	 1.8489454491	 0.8514501418	 0.125245
H	-1.6129745351	-0.2175032816	-0.9640431187	 0.272584
H	 0.6639155332	-1.2585681093	-1.6466987344	 0.109838
H	 1.7751873266	 0.1429808281	-1.5150098995	 0.079802
H	 3.1542592664	-2.5663771769	 0.0039416797	 0.283474
H	 2.7039290089	-0.7123155763	 2.1352247663	 0.114855
H	 2.5427869363	 0.7252572514	 1.0182368338	 0.100582
H	 0.1981486073	-1.1089822094	 2.0104245485	 0.098183
133.0571	220.0412	235.4852	249.9691	285.2497	346.7209	372.2697	396.434	416.2099	451.2673	492.0977	587.1418	688.1701	789.3764	832.2965	879.2174	904.5088	942.971	962.6876	988.7874	1004.7432	1035.152	1078.3758	1101.0696	1109.9404	1155.346	1214.243	1231.1399	1246.8323	1277.8197	1309.6534	1385.0437	1396.4218	1411.3725	1462.5372	1487.4507	1492.8204	1504.6699	3023.1907	3033.6118	3090.1829	3102.7729	3116.6803	3120.4831	3193.9074	3201.827	3791.9009	3797.4772
CC1(O)CC2(O)CC12	C[C@@]1(O)C[C@@]2(O)C[C@@H]12	
InChI=1S/C6H10O2/c1-5(7)3-6(8)2-4(5)6/h4,7-8H,2-3H2,1H3	InChI=1S/C6H10O2/c1-5(7)3-6(8)2-4(5)6/h4,7-8H,2-3H2,1H3/t4-,5+,6-/m0/s1
