17
gdb 124750	2.57878	1.45719	0.97332	3.6408	70.66	-0.2148	0.0063	0.2212	1174.9366	0.137087	-451.321751	-451.312872	-451.311928	-451.355538	32.709	
C	 0.3111412508	 1.3327034108	-0.4251187612	-0.406925
C	 0.1039816204	-0.065813222	 0.1561192409	-0.009968
O	 0.4662855144	-0.1288428259	 1.5374466808	-0.430672
C	-1.3068285601	-0.5604187865	-0.0237301049	 0.286134
C	-2.2345420055	-0.5498921091	-1.0497837873	 0.194533
N	-2.1401288873	 0.0143068282	-2.3315581283	-0.598456
N	-3.3737894592	-1.1578755633	-0.617784036	-0.250606
N	-3.2112207728	-1.5511629342	 0.6198344924	-0.129971
N	-1.9675552234	-1.2106860369	 0.9691979706	-0.220627
H	 1.3591671798	 1.6275465631	-0.3284139383	 0.126031
H	 0.0182360468	 1.3683480319	-1.4772476985	 0.145042
H	-0.3143975443	 2.0597147845	 0.10620535	 0.119826
H	 0.7980905458	-0.761203451	-0.3349131341	 0.111376
H	 0.1126752307	 0.6604188906	 1.9639403348	 0.285461
H	-1.4068306714	-0.4070804429	-2.890699101	 0.245721
H	-3.0228272541	-0.1123209352	-2.8148567835	 0.25354
H	-1.6026354309	-1.4268591621	 1.8837625936	 0.279557
50.6329	157.0918	176.864	201.9489	253.6118	297.7069	324.4557	340.459	362.4624	475.9758	525.1257	614.8659	650.246	715.2303	750.4689	760.2896	847.2588	904.5882	1015.8636	1037.9487	1064.0548	1098.6162	1120.5352	1126.0709	1230.9208	1243.2635	1303.1002	1342.1052	1350.1612	1376.1417	1409.7817	1413.6238	1486.0471	1493.2726	1518.0236	1632.0409	1648.7046	3014.3263	3036.4756	3109.0027	3136.1504	3513.25	3597.3708	3653.9275	3794.3592
CC(O)C1=C(N)N=NN1	C[C@@H](O)c1c(N)nn[nH]1	
InChI=1S/C4H8N4O/c1-2(9)3-4(5)7-8-6-3/h2,9H,1H3,(H3,5,6,7,8)	InChI=1S/C4H8N4O/c1-2(9)3-4(5)7-8-6-3/h2,9H,1H3,(H3,5,6,7,8)/t2-/m1/s1
