18
gdb 44101	4.30735	1.18739	0.95475	3.5186	78.98	-0.2002	0.0068	0.2069	1207.5689	0.150159	-402.013322	-402.005586	-402.004641	-402.045722	29.686	
O	 0.0293955726	 0.0232283409	 0.2377494053	-0.36441
C	-0.0174333953	 1.2238812015	 0.1214258426	 0.409957
C	-1.2716354046	 2.138297673	 0.0752125813	-0.496441
C	-0.6753878694	 3.5123914374	-0.0138927725	 0.233715
C	 0.6554835309	 3.4071884088	-0.0495046822	 0.347428
C	 1.3820599486	 4.6993183981	-0.2354545071	-0.350505
C	 0.2140683843	 5.7224312852	-0.0491131406	-0.194317
C	-1.1306768963	 4.9313362563	-0.1835377965	-0.33748
N	 1.078485295	 2.0745324803	 0.0071138721	-0.432422
H	-1.8859157108	 1.8557786044	-0.7888639916	 0.141626
H	-1.8836315641	 1.9521721038	 0.9654384944	 0.141044
H	 2.1919377446	 4.8605482893	 0.4856102605	 0.10931
H	 1.8359417988	 4.7624825176	-1.2340816619	 0.114341
H	 0.2775571349	 6.1567998222	 0.9522636227	 0.11263
H	 0.2799069316	 6.5484304824	-0.7609569021	 0.103819
H	-1.602205361	 5.0981601221	-1.1630400244	 0.102268
H	-1.8628605415	 5.2573069861	 0.5651029344	 0.102359
H	 2.0251170916	 1.7411964605	 0.0796200056	 0.257076
90.7252	130.4868	193.8082	226.2633	312.2716	406.4643	499.6068	526.8991	541.5527	607.8499	668.5338	698.9667	787.287	828.1597	865.6892	897.3719	906.6004	946.1485	996.3237	1049.8977	1060.1377	1137.1016	1165.5215	1178.3662	1195.7158	1208.846	1221.7835	1271.6462	1285.988	1318.8652	1330.2272	1362.0268	1436.875	1455.0458	1485.2023	1498.2179	1513.0798	1729.4425	1839.8771	2995.3974	3011.2563	3035.5049	3037.2874	3046.9928	3067.5116	3068.5917	3109.6713	3665.1653
O=C1CC2=C(CCC2)N1	O=C1CC2=C(CCC2)N1	
InChI=1S/C7H9NO/c9-7-4-5-2-1-3-6(5)8-7/h1-4H2,(H,8,9)	InChI=1S/C7H9NO/c9-7-4-5-2-1-3-6(5)8-7/h1-4H2,(H,8,9)
