22
gdb 105056	2.61183	1.20931	1.13608	2.4597	81.2	-0.2446	0.0767	0.3213	1248.3645	0.192533	-404.30553	-404.295673	-404.294729	-404.340354	37.092	
C	-0.3015896195	 1.615385185	-0.6536373455	-0.403462
C	-0.4007346866	 0.088879424	-0.7122300005	-0.244512
C	-1.3892469901	-0.5459118879	 0.2624224183	 0.331123
C	-1.7334795053	 0.1150443079	 1.5339094403	-0.235954
O	-2.6279723454	 0.1699259104	 0.4226046121	-0.273798
C	-1.5580309601	-2.044628123	 0.091847281	 0.266304
C	-2.4204212825	-2.4406117351	-1.0917821238	-0.450788
C	-0.4339820044	-2.9217975109	 0.5157494846	-0.272258
N	-1.7074618449	-2.9349730396	 1.2572790201	-0.355585
H	 0.2934764247	 1.9884396513	-1.4918954099	 0.114444
H	-1.2949559123	 2.0679456765	-0.709477219	 0.140849
H	 0.180986551	 1.9599701002	 0.2662853613	 0.114737
H	-0.6991547182	-0.210411845	-1.7244159763	 0.112376
H	 0.5837616468	-0.363785397	-0.5449233402	 0.105321
H	-2.0923400081	-0.4632849017	 2.3838110091	 0.112343
H	-1.2600549055	 1.0577923479	 1.8012044633	 0.114193
H	-1.9763160025	-2.1218974753	-2.0405222563	 0.114211
H	-2.5437067041	-3.5255408565	-1.114094011	 0.126459
H	-3.4086616017	-1.9798330382	-1.0049521662	 0.138553
H	-0.2124502273	-3.82809948	-0.0419308566	 0.115679
H	 0.4313460326	-2.4593484311	 0.9851031362	 0.106182
H	-1.5945841766	-2.4213572519	 2.1264372688	 0.223582
48.7916	78.1193	178.0908	192.9762	228.6983	247.9167	303.3827	308.3796	346.9522	354.0738	455.5935	502.4156	514.017	624.243	770.753	798.3732	835.3575	853.9875	892.9751	918.5801	952.0691	975.6132	1012.2188	1037.2998	1066.0196	1079.6148	1115.6464	1117.8934	1126.7248	1143.148	1179.0896	1183.3042	1260.4528	1299.4014	1316.8497	1364.3306	1367.6352	1399.2414	1410.3701	1418.9179	1479.3188	1484.8216	1497.1581	1499.7727	1511.1772	1513.7801	1532.8015	3031.5774	3042.5177	3044.3311	3063.548	3088.7852	3099.8735	3108.3655	3110.2654	3127.0051	3131.2465	3169.096	3183.4026	3513.7323
CCC1(CO1)C1(C)CN1	CC[C@]1(CO1)[C@@]1(C)CN1	
InChI=1S/C7H13NO/c1-3-7(5-9-7)6(2)4-8-6/h8H,3-5H2,1-2H3	InChI=1S/C7H13NO/c1-3-7(5-9-7)6(2)4-8-6/h8H,3-5H2,1-2H3/t6-,7+/m1/s1
