20
gdb 22216	2.03663	1.16281	0.88192	2.2716	79.31	-0.2444	-0.0326	0.2118	1383.534	0.167071	-440.259315	-440.24861	-440.247666	-440.29618	37.788	
C	 0.7216059319	-0.0792255125	 1.37126054	-0.392361
C	 0.1133387231	 0.0457384549	-0.0405336625	-0.052715
C	 1.0864841228	-0.4614620523	-1.1167062993	-0.410605
C	-1.2295326458	-0.6587139207	-0.0843633968	 0.333394
C	-1.2981019328	-2.1621655168	-0.2531648964	-0.346507
C	-1.2969978838	-2.5860146904	-1.7164439057	 0.160438
O	-0.5539067542	-3.4019297138	-2.1937126484	-0.236299
N	-2.3710367899	-0.0897462824	 0.0274674101	-0.183191
O	-2.2799083314	 1.3015537764	 0.1756764949	-0.395534
H	 1.6694731914	 0.4660946396	 1.4218361113	 0.11873
H	 0.0481866653	 0.3346568854	 2.1267125907	 0.130282
H	 0.9264814167	-1.1238073719	 1.6303357944	 0.118372
H	-0.0813727772	 1.1045081626	-0.2249178323	 0.113055
H	 1.3338471795	-1.519613449	-0.9882559066	 0.134405
H	 0.6772636022	-0.33446105	-2.1238414959	 0.122651
H	 2.0211642053	 0.1056680242	-1.0646514906	 0.11736
H	-0.4792722187	-2.6734301328	 0.2589135917	 0.126713
H	-2.2513623023	-2.5040259185	 0.1668403462	 0.143492
H	-2.0748623658	-2.075200475	-2.3273750315	 0.09003
H	-3.2065605764	 1.556873943	 0.2340385565	 0.308289
36.5039	54.3756	71.9837	160.8173	223.6779	238.4677	252.4745	270.6483	276.132	342.1221	378.1064	426.6568	457.9214	484.2901	625.1287	690.5654	711.7668	832.9283	907.0645	933.2389	970.9767	975.7975	1018.1367	1051.5568	1087.5653	1123.5598	1185.5426	1196.4899	1270.2887	1299.1822	1336.5505	1351.4689	1397.9649	1407.9988	1412.9801	1422.6757	1450.6208	1486.8796	1494.4917	1506.4523	1509.008	1710.7516	1833.4946	2884.3494	3033.7722	3037.5704	3045.9041	3081.7162	3101.712	3105.7372	3113.2569	3115.8383	3119.4989	3821.1459
CC(C)C(CC=O)=NO	CC(C)C(=NO)CC=O	
InChI=1S/C6H11NO2/c1-5(2)6(7-9)3-4-8/h4-5,9H,3H2,1-2H3	InChI=1S/C6H11NO2/c1-5(2)6(7-9)3-4-8/h4-5,9H,3H2,1-2H3
