17
gdb 39991	4.18748	1.39002	1.2835	2.1034	71.24	-0.2342	0.0815	0.3157	995.2214	0.136854	-421.74079	-421.734275	-421.733331	-421.771642	26.879	
C	 0.0328805763	 1.5163978978	 0.0114188536	-0.263848
O	 1.1937139087	 0.6754753556	 0.0157103508	-0.281079
C	-0.0935091968	 0.0575778483	 0.0121233898	 0.444016
C	-0.5163234586	-0.8119338981	 1.2094263708	-0.343883
C	-1.0739556428	-2.0123602345	 0.4507130369	-0.043886
C	-0.2153642736	-2.284379362	-0.8218065929	 0.054395
O	-1.4030447671	-2.7167171067	-1.5715536811	-0.31696
C	-1.8242845623	-1.5244642209	-0.8270840948	 0.04803
C	-0.4923271594	-0.7881670592	-1.168217177	-0.124394
H	-0.1438418785	 2.0720694211	 0.9320164051	 0.114093
H	-0.1331616143	 2.0793403058	-0.9068063663	 0.114347
H	 0.3488885419	-1.0596149553	 1.8315472319	 0.123711
H	-1.2660207017	-0.3285969476	 1.8439720102	 0.110026
H	-1.4799685501	-2.8689190209	 0.9861322609	 0.084883
H	 0.7028207454	-2.8604538574	-0.9356451259	 0.100132
H	-2.8532812581	-1.1826515519	-0.9445900137	 0.094768
H	-0.317626929	-0.4331484742	-2.1817681085	 0.085649
110.2063	267.8855	301.5814	371.0953	469.6796	509.1547	530.9918	667.5072	765.3019	776.9386	820.096	837.1694	885.0561	900.4134	906.5463	920.1883	957.6437	969.9792	985.3432	995.3259	1051.5855	1117.8101	1123.1814	1135.4208	1160.0915	1164.2578	1174.2054	1205.3817	1222.1419	1224.4464	1252.808	1280.1968	1285.8546	1350.7656	1442.9177	1486.5794	1535.9868	3050.7135	3075.4927	3097.1202	3110.5455	3120.1938	3143.2129	3151.997	3160.9597
C1OC11CC2C3OC2C13	C1O[C@]21C[C@@H]1[C@H]3O[C@@H]1[C@@H]23	
InChI=1S/C7H8O2/c1-3-5-4(6(3)9-5)7(1)2-8-7/h3-6H,1-2H2	InChI=1S/C7H8O2/c1-3-5-4(6(3)9-5)7(1)2-8-7/h3-6H,1-2H2/t3-,4+,5-,6+,7-/m0/s1
