23
gdb 101342	3.02413	0.77757	0.747	0.8692	82.83	-0.2583	0.0747	0.333	1686.7109	0.203063	-425.410259	-425.399214	-425.39827	-425.447272	39.329	
C	-0.1653360817	 1.5418011161	 0.4983971883	-0.375229
C	-0.1350235454	 0.0705510637	 0.9314054495	-0.215776
C	-1.4016829829	-0.6523510521	 0.5393681796	 0.07444
O	-1.5830633917	-0.9568998383	-0.8514623451	-0.276135
C	-1.4886907425	-2.0474355712	 0.0750083542	 0.047073
C	-0.322188516	-3.0009134184	-0.0696185403	-0.007921
C	-0.1883876987	-3.8887621203	 1.1750784685	-0.400842
C	-0.5024546384	-3.8320920522	-1.3429425115	-0.075383
O	 0.6479763963	-4.6496367255	-1.5042013013	-0.426349
H	 0.7545710515	 2.0571131463	 0.7894982934	 0.113231
H	-0.2721719905	 1.6185943089	-0.5876077765	 0.134514
H	-1.0067640537	 2.0732093131	 0.9564194367	 0.114588
H	 0.7328651064	-0.4258679616	 0.4883388901	 0.10923
H	-0.0211201902	 0.0030471507	 2.0213639247	 0.100441
H	-2.3023098989	-0.2424718023	 1.0057371367	 0.082253
H	-2.445286088	-2.5526166539	 0.2419271731	 0.081237
H	 0.5997542431	-2.4253094087	-0.20069876	 0.088267
H	 0.6163393461	-4.6132646881	 1.0361936978	 0.139106
H	 0.0270146036	-3.2920150158	 2.0667807512	 0.11217
H	-1.1150436499	-4.4454882551	 1.3605577531	 0.109333
H	-1.4165931611	-4.4443055776	-1.2572140008	 0.079135
H	-0.6343321041	-3.1525543299	-2.1972490579	 0.105369
H	 0.5394988866	-5.1652983078	-2.3081161434	 0.287248
41.3311	67.7045	95.1094	134.5132	174.3732	214.2139	225.0683	240.0062	255.093	278.6607	379.317	408.0163	468.1537	524.159	571.0914	754.2915	811.2855	835.2303	877.1601	930.0243	945.068	954.2247	1020.2967	1041.846	1072.7149	1091.0417	1119.2029	1137.4052	1167.1642	1184.145	1195.6104	1239.7407	1262.9788	1289.0828	1302.566	1314.7509	1346.1606	1356.3218	1398.9207	1408.6657	1421.3927	1456.0927	1473.2038	1488.5189	1498.0332	1499.1412	1505.863	1510.9893	1522.5388	2955.7738	3014.1091	3027.1203	3031.2603	3036.6372	3049.6084	3063.1402	3067.4567	3086.9703	3097.3352	3108.5451	3117.5681	3134.154	3836.0535
CCC1OC1C(C)CO	CC[C@H]1O[C@H]1[C@@H](C)CO	
InChI=1S/C7H14O2/c1-3-6-7(9-6)5(2)4-8/h5-8H,3-4H2,1-2H3	InChI=1S/C7H14O2/c1-3-6-7(9-6)5(2)4-8/h5-8H,3-4H2,1-2H3/t5-,6+,7-/m0/s1
