15
gdb 48224	2.64235	1.35132	0.95786	1.9757	80.35	-0.2476	-0.0497	0.1979	1188.6456	0.112012	-412.951174	-412.942149	-412.941205	-412.985374	32.178	
N	 0.1995699625	 1.1818900836	-0.6376319997	-0.440312
C	 0.1069803759	 0.0203224851	-0.140669468	 0.085755
N	-1.1241072092	-0.6443952859	-0.0362388211	-0.107781
C	-1.1279602921	-2.0308338373	 0.1878832555	 0.108699
N	-0.0514205751	-2.7026546004	 0.2113344752	-0.471646
C	-2.3699488398	 0.0027409091	-0.2034705945	 0.239205
N	-3.3617542546	-0.6844897575	-0.6269721032	-0.497164
C	-2.480162595	 1.3736772814	 0.2051006568	 0.306501
C	-2.747070658	 2.4865897309	 0.5747446475	-0.441456
H	 1.1666247253	 1.4999158007	-0.5986101883	 0.235644
H	 0.9178606241	-0.6065419954	 0.2296118289	 0.149673
H	-2.1391421048	-2.407973844	 0.3343895759	 0.144255
H	-0.252482574	-3.6744644617	 0.4368624008	 0.236679
H	-4.2075011347	-0.1170209076	-0.6136281664	 0.239508
H	-2.9372461807	 3.4831615289	 0.8901388005	 0.212441
51.0527	121.4914	144.6963	186.0535	212.9758	262.601	295.8795	312.8476	461.254	481.2265	590.5636	651.7236	677.8483	698.5122	733.9047	777.0024	816.8783	839.5668	884.9701	1014.5066	1066.3613	1078.081	1144.6359	1158.4963	1271.8267	1362.8213	1386.9327	1421.1628	1428.0387	1653.3886	1710.7651	1734.2647	2227.5468	3139.3544	3143.8237	3500.131	3500.3507	3509.9871	3514.1607
N=CN(C=N)C(=N)C#C	N=CN(C=N)C(=N)C#C	
InChI=1S/C5H6N4/c1-2-5(8)9(3-6)4-7/h1,3-4,6-8H	InChI=1S/C5H6N4/c1-2-5(8)9(3-6)4-7/h1,3-4,6-8H
