18
gdb 52096	4.30333	0.91449	0.90372	2.7715	73.99	-0.2472	0.0288	0.276	1333.3452	0.147615	-439.042191	-439.033889	-439.032945	-439.076431	30.736	
O	 0.1111347229	 0.3470473453	 0.8209394887	-0.323444
C	 0.1566349039	 1.311428264	 0.0866126104	 0.156709
N	 1.2572827595	 1.7268236545	-0.594856778	-0.274478
C	 2.555241635	 1.0922780286	-0.4569659959	-0.295235
C	 3.5982608268	 2.0953425449	-0.0571623707	 0.411743
C	 3.6482165463	 3.0625297169	 1.1559510908	-0.246165
C	 4.7432749709	 3.4584455449	 0.1412042932	 0.053927
C	 5.1431477622	 1.9720358918	-0.010995692	-0.265928
O	 3.7600123701	 3.2785635267	-0.9554331425	-0.356641
H	-0.717630192	 1.9614029268	-0.1137284023	 0.077796
H	 1.2127216077	 2.5805658987	-1.1296228526	 0.261973
H	 2.454838041	 0.3123762894	 0.3020727035	 0.156122
H	 2.8574644666	 0.6170608461	-1.399200714	 0.121383
H	 2.8111047713	 3.7565828218	 1.2314540803	 0.107389
H	 3.9582154706	 2.6557075234	 2.1213993246	 0.10237
H	 5.3683702601	 4.3497792393	 0.1082050068	 0.100654
H	 5.5920868086	 1.4667103973	 0.8473814264	 0.101601
H	 5.6150671385	 1.7135212095	-0.9596321868	 0.110228
33.5815	69.8907	141.8398	230.7245	280.874	322.1463	411.8888	519.2613	559.1113	596.998	666.9657	713.7353	770.2664	813.693	880.2591	905.1201	947.6801	979.203	984.8644	992.0804	1033.6781	1043.1829	1094.4029	1109.8577	1136.7246	1160.1541	1210.8685	1217.218	1231.3298	1240.336	1268.6869	1329.374	1393.2127	1428.3534	1467.1022	1479.0326	1513.177	1529.5749	1804.3632	2942.6308	3024.7719	3064.4098	3072.687	3114.3475	3129.937	3149.0638	3154.8939	3632.0614
O=CNCC12CC(C1)O2	O=CNC[C@@]12C[C@@H](C1)O2	
InChI=1S/C6H9NO2/c8-4-7-3-6-1-5(2-6)9-6/h4-5H,1-3H2,(H,7,8)	InChI=1S/C6H9NO2/c8-4-7-3-6-1-5(2-6)9-6/h4-5H,1-3H2,(H,7,8)/t5-,6+
