15
gdb 96724	2.49868	1.18759	0.8124	1.5626	66.9	-0.2543	-0.0616	0.1927	1324.8136	0.109758	-491.132907	-491.123067	-491.122123	-491.169105	33.209	
C	-0.0487426248	 1.5227773907	 0.2088349343	-0.307781
N	 0.0638215234	 0.0775798065	 0.0873459331	-0.289305
C	 0.5149518787	-0.5009456022	-0.928457216	 0.356974
O	 0.5911935738	-1.8901062397	-0.9773543739	-0.244096
C	-0.1926854369	-2.648332955	-0.1411349268	 0.172077
O	-0.0816299003	-3.8333761141	-0.1187243709	-0.25522
C	 1.0646911278	 0.115416682	-2.2095324876	 0.330016
N	 1.4989593527	-0.7772968917	-3.1308852381	-0.521795
O	 1.0922627044	 1.3227297124	-2.3546465302	-0.355349
H	 0.9317244302	 2.0034868063	 0.1453752024	 0.150189
H	-0.6615015567	 1.9520397581	-0.5885768414	 0.148813
H	-0.4994752122	 1.7483263896	 1.1779751998	 0.121735
H	-0.8884774505	-2.0368592231	 0.4455400239	 0.135907
H	 1.4846607434	-1.7655294613	-2.9476804167	 0.286339
H	 1.8945832969	-0.4235432984	-3.9862976819	 0.271495
33.2385	70.6823	107.6332	110.9063	173.7304	234.1565	294.3437	320.0125	365.1998	406.8998	436.8389	470.4642	545.5213	636.8228	702.435	811.86	828.0124	1043.1617	1053.5927	1086.4933	1103.4524	1106.236	1133.679	1205.0987	1362.5486	1393.4963	1432.6361	1476.6461	1495.1696	1599.9534	1762.593	1798.0563	1869.2854	3041.4414	3085.283	3110.8342	3120.4648	3604.6733	3744.5567
CN=C(OC=O)C(N)=O	CN=C(OC=O)C(=O)N	
InChI=1S/C4H6N2O3/c1-6-4(3(5)8)9-2-7/h2H,1H3,(H2,5,8)	InChI=1S/C4H6N2O3/c1-6-4(3(5)8)9-2-7/h2H,1H3,(H2,5,8)
