19
gdb 66935	2.1934	1.9702	1.51969	0.7852	74.01	-0.2218	0.0697	0.2916	976.5389	0.157085	-422.961159	-422.952623	-422.951679	-422.993463	33.658	
C	 0.0613831487	 1.5008718729	 0.0870198336	-0.520243
C	 0.0385489918	 0.0064779584	-0.0099086203	 0.276835
C	-0.9091787972	-0.913831441	 0.7793659884	 0.026996
O	-1.0663240878	-2.1442568774	 0.0613902585	-0.294575
C	 0.3611678827	-2.0522545953	-0.2061802432	-0.007609
C	 0.560428069	-1.0413457419	 0.9774296844	-0.19009
C	 0.4801027894	-0.8514146943	-1.2013867574	 0.358811
C	-0.3537379064	-0.8799208016	-2.4703698277	-0.473367
O	 1.8415607658	-0.539154199	-1.4620741801	-0.480294
H	 1.0475425611	 1.8885320526	-0.1879887179	 0.139277
H	-0.680907642	 1.9562466216	-0.5786138385	 0.122192
H	-0.1598756853	 1.8358266937	 1.1061974159	 0.117752
H	-1.7132480553	-0.5681374879	 1.4163614378	 0.108638
H	 0.849178145	-3.0104713618	-0.3803853542	 0.076707
H	 1.2173624716	-0.9870677362	 1.8335628085	 0.099767
H	-1.3790083383	-1.1788749163	-2.2438976234	 0.140789
H	-0.3607481645	 0.1042853445	-2.9492389118	 0.121518
H	 0.0574391277	-1.600355913	-3.1898227803	 0.100429
H	 2.1422731241	-1.1159299582	-2.1724996922	 0.276465
180.4063	186.2966	199.7926	228.4132	231.324	280.4925	306.2167	369.4544	419.3325	538.4132	585.4672	624.6798	655.83	780.3113	807.8686	823.6179	853.6977	890.3655	916.8585	950.2477	954.3815	978.7357	1041.0999	1074.9342	1086.4062	1115.6055	1143.0987	1170.5879	1188.3098	1207.8184	1209.4732	1262.7491	1288.3957	1372.6403	1397.8283	1409.8988	1436.6887	1482.5895	1487.2464	1498.7633	1501.132	3020.401	3026.5761	3087.6703	3090.3181	3099.889	3130.0109	3137.2456	3199.3281	3219.0786	3804.3602
CC12C3OC(C13)C2(C)O	C[C@]12[C@H]3O[C@H]([C@@H]13)[C@]2(C)O	
InChI=1S/C7H10O2/c1-6-3-4(6)9-5(3)7(6,2)8/h3-5,8H,1-2H3	InChI=1S/C7H10O2/c1-6-3-4(6)9-5(3)7(6,2)8/h3-5,8H,1-2H3/t3-,4-,5+,6+,7-/m0/s1
