17
gdb 76098	2.50131	1.25252	1.02957	3.5069	73.88	-0.2536	0.0068	0.2604	1198.8307	0.134754	-417.955418	-417.946535	-417.945591	-417.989658	31.676	
C	-0.2129683666	 1.4991366709	-0.0638349977	-0.326218
N	 0.057561234	 0.0680405757	 0.0607703281	-0.101457
C	 1.3827248578	-0.4565644376	-0.2914263756	-0.184737
C	 2.4445326621	 0.4386851244	-0.6815240534	 0.304743
N	 3.2794748839	 1.1692280586	-1.0104205779	-0.344463
C	 0.8938003622	-0.4338682145	 1.1374153855	-0.039283
C	 1.5293594995	 0.4439031464	 2.1719687159	 0.055234
C	 0.9623792884	 0.5098828486	 3.5277055136	-0.185505
O	 2.1298313002	-0.2639381244	 3.2579990408	-0.224179
H	 0.6520245817	 2.1519703506	 0.1082063648	 0.132708
H	-0.5876392162	 1.6903564788	-1.0729013709	 0.141698
H	-0.9996832858	 1.7599662173	 0.6491134895	 0.135491
H	 1.3746494778	-1.3930584275	-0.8428286178	 0.140916
H	 0.5634223291	-1.3860850026	 1.5502879762	 0.119132
H	 2.1127193759	 1.2896348445	 1.81390655	 0.128462
H	 1.1182468639	 1.4030382668	 4.1302973719	 0.126184
H	 0.0662708722	-0.0630323059	 3.7628978868	 0.121275
56.7537	108.9862	137.8838	168.4268	193.9975	264.3022	332.3151	365.0779	393.8769	533.0176	616.6077	621.0092	720.8023	837.9538	854.0193	873.723	926.4877	965.6649	1033.7328	1072.2373	1097.7858	1134.5415	1149.7601	1161.379	1167.665	1173.5157	1198.5829	1291.4101	1315.4058	1327.2321	1363.4758	1454.416	1466.3539	1489.7673	1504.3136	1527.7452	2346.7183	3019.8687	3085.9525	3094.4776	3120.4981	3122.7416	3138.198	3145.7956	3175.8113
CN1C(C#N)C1C1CO1	CN1[C@@H](C#N)[C@H]1[C@H]1CO1	
InChI=1S/C6H8N2O/c1-8-4(2-7)6(8)5-3-9-5/h4-6H,3H2,1H3	InChI=1S/C6H8N2O/c1-8-4(2-7)6(8)5-3-9-5/h4-6H,3H2,1H3/t4-,5+,6-,8?/m0/s1
