20
gdb 70640	2.43376	1.56055	1.14623	1.9059	84.57	-0.2313	0.0589	0.2902	1137.4199	0.171263	-365.976623	-365.967979	-365.967035	-366.009457	34.068	
C	-0.5053535843	 1.251378996	-0.0586438504	-0.494335
C	 0.0526056912	-0.1387657308	 0.0832473956	 0.335833
N	-0.4498414829	-1.0438134058	 1.1379608168	-0.367883
C	 0.9586374038	-0.5800141702	 1.1720563321	-0.085542
C	 1.9291540481	-1.620417762	 0.645617601	-0.222274
C	 1.2593852272	-2.127460344	-0.6517238286	-0.231765
C	 0.4465795391	-0.9122873835	-1.1867396691	-0.203788
C	-0.674057886	-1.271651369	-2.0447217396	 0.330981
C	-1.6045391565	-1.5580585513	-2.7505352049	-0.462291
H	 0.166691248	 1.8893067493	-0.6438700475	 0.121392
H	-1.4728836719	 1.2306820529	-0.5721048186	 0.138094
H	-0.6472864457	 1.7213578823	 0.9201916879	 0.111617
H	-0.9980626182	-0.500828771	 1.8012327254	 0.22527
H	 1.2646352085	 0.1037796832	 1.9585323246	 0.081211
H	 2.8923896068	-1.1397547138	 0.4347609398	 0.09712
H	 2.1131047202	-2.4322158211	 1.3563408759	 0.105022
H	 1.9753905839	-2.4944024757	-1.3902371413	 0.100182
H	 0.5659340073	-2.936886376	-0.4212387697	 0.13482
H	 1.1216252758	-0.2557774904	-1.7551899549	 0.096187
H	-2.4261008945	-1.8184491089	-3.3704543945	 0.19015
103.7614	128.4112	204.6728	236.3566	250.374	309.711	361.374	433.8186	494.2737	525.6593	560.0678	616.5277	629.7732	645.0806	705.1053	830.294	843.5941	869.9558	911.9971	950.504	966.7945	1001.4839	1042.3467	1045.617	1051.6836	1099.8285	1118.1903	1132.7639	1186.026	1238.1543	1278.9017	1294.128	1309.2006	1339.834	1342.5237	1364.2204	1414.4829	1445.4256	1480.3013	1483.4371	1494.7002	1502.5666	2234.2234	2997.9074	3025.6684	3033.4038	3078.448	3084.0683	3090.3455	3098.6637	3135.4267	3152.8059	3495.5751	3505.1285
CC12NC1CCC2C#C	C[C@]12N[C@H]1CC[C@H]2C#C	
InChI=1S/C8H11N/c1-3-6-4-5-7-8(6,2)9-7/h1,6-7,9H,4-5H2,2H3	InChI=1S/C8H11N/c1-3-6-4-5-7-8(6,2)9-7/h1,6-7,9H,4-5H2,2H3/t6-,7+,8-/m1/s1
