17
gdb 126378	4.71992	1.0297	0.90492	3.1969	80.5	-0.2244	-0.0587	0.1657	1305.2282	0.136975	-414.215122	-414.206671	-414.205726	-414.248807	31.352	
C	 0.0114456462	 1.5227021633	 0.127855489	-0.377538
C	-0.0428556031	 0.0061202694	-0.1173422971	-0.249437
C	-1.4467208822	-0.5316923295	-0.0606853922	 0.368559
N	-2.0672840399	-0.5439912056	 1.1396198961	-0.256961
C	-3.2996135315	-0.9968225146	 1.1504174541	-0.059221
C	-3.9144245304	-1.4439355909	-0.0383546411	 0.388518
N	-5.2212696391	-1.8699360541	-0.0800238627	-0.566837
N	-3.240282434	-1.4218479559	-1.1891965494	-0.259141
N	-1.9954736058	-0.952998133	-1.1979919309	-0.229544
H	 1.0459398722	 1.8783213428	 0.1194723118	 0.114875
H	-0.5400761736	 2.0642421654	-0.6471637411	 0.123732
H	-0.4293402742	 1.772010573	 1.0973784014	 0.131657
H	 0.3743276667	-0.2392540245	-1.0968933526	 0.121242
H	 0.5569442512	-0.5045001045	 0.6447443662	 0.113504
H	-3.8292518822	-1.019952418	 2.1024870161	 0.113885
H	-5.6023538215	-2.2742891542	 0.7607174944	 0.258537
H	-5.4676977989	-2.3576416591	-0.9295119021	 0.264171
41.3659	87.5564	205.0913	221.8466	317.4844	359.3368	388.6197	420.1991	437.0064	509.632	540.2181	618.3802	663.9475	759.25	791.5504	839.8127	874.1513	949.6555	983.3566	1048.369	1059.06	1083.8519	1112.2559	1159.2079	1268.7984	1302.7725	1326.7707	1368.8861	1399.6734	1409.8803	1469.0085	1479.5776	1496.6914	1510.1959	1556.4173	1611.4435	1644.319	3039.3152	3044.5367	3101.2199	3112.314	3124.0663	3127.4745	3572.7234	3687.6514
CCC1=NC=C(N)N=N1	CCc1ncc(N)nn1	
InChI=1S/C5H8N4/c1-2-5-7-3-4(6)8-9-5/h3H,2H2,1H3,(H2,6,8)	InChI=1S/C5H8N4/c1-2-5-7-3-4(6)8-9-5/h3H,2H2,1H3,(H2,6,8)
