20
gdb 122703	6.09856	0.53851	0.51746	2.5215	84.22	-0.2342	0.0174	0.2516	2146.3134	0.169202	-440.258235	-440.248294	-440.24735	-440.294943	35.161	
O	-0.1050537242	 1.4639167256	-0.2433577155	-0.417889
C	-0.0614459015	 0.0855868487	 0.0561606364	-0.059757
C	-1.4523766874	-0.5271990293	 0.0837154426	-0.088678
O	-1.9942663018	-0.3506495484	-1.2284046527	-0.225513
C	-3.3179446361	-0.5822848914	-1.3729686737	 0.115878
N	-3.8584211318	-0.4938787795	-2.50580016	-0.215573
C	-5.2557568705	-0.7333827369	-2.6030670713	 0.075567
C	-6.0262978629	 0.067671615	-3.6275313405	-0.272243
C	-5.7587803804	-1.3939589458	-3.8661557063	-0.27208
H	-0.5818164536	 1.5453393348	-1.077698299	 0.295883
H	 0.5599456584	-0.4693141696	-0.6638310288	 0.103097
H	 0.3976506968	-0.01665622	 1.0448016726	 0.114293
H	-1.4063807131	-1.5949343027	 0.3382815148	 0.107175
H	-2.0776520775	-0.0080075242	 0.821408884	 0.114817
H	-3.8405622719	-0.8369546061	-0.4393364926	 0.079911
H	-5.7818779011	-0.9805613155	-1.6779191359	 0.072469
H	-7.0329093379	 0.3803750953	-3.3733594693	 0.111633
H	-5.4549617785	 0.7842858576	-4.2051951391	 0.124678
H	-5.0086478016	-1.6542295013	-4.6031809228	 0.124966
H	-6.5798401734	-2.0965380665	-3.7777330831	 0.111366
30.1832	46.8151	103.145	123.7201	170.109	247.1957	255.6179	302.1368	400.484	434.3458	455.6011	542.5296	573.5858	774.6144	821.4675	848.3459	901.399	915.4535	921.8825	984.7691	992.068	1056.7581	1071.3173	1071.9106	1090.2938	1120.4786	1133.0947	1198.5884	1202.0695	1213.4037	1235.9324	1252.8977	1267.6208	1366.3692	1392.2053	1399.933	1432.8982	1440.3555	1457.2868	1496.304	1497.7167	1501.7218	1768.3489	2990.0154	3000.0176	3013.7737	3059.0037	3064.4594	3083.8665	3139.3749	3143.4603	3225.6947	3239.5841	3798.7819
OCCOC=NC1CC1	OCCOC=NC1CC1	
InChI=1S/C6H11NO2/c8-3-4-9-5-7-6-1-2-6/h5-6,8H,1-4H2	InChI=1S/C6H11NO2/c8-3-4-9-5-7-6-1-2-6/h5-6,8H,1-4H2
