16
gdb 76541	2.74547	1.25818	1.18089	2.3717	67.77	-0.2252	-0.0239	0.2013	1103.7585	0.122826	-474.975592	-474.967069	-474.966125	-475.008906	31.615	
O	 0.1444088166	 1.309192138	 0.1692856741	-0.420989
C	 0.1014913071	-0.0902371512	 0.1183544154	-0.03516
C	-0.5991403539	-0.7638474208	 1.2695102477	 0.010239
O	-1.1454881975	 0.0581740583	 2.2462856946	-0.424196
C	-1.2627846792	-0.690263508	-0.1130351593	 0.185351
N	-2.5150860674	 0.0238113774	-0.3763954704	-0.375568
C	-3.0692740537	-1.1667797132	-1.1019977826	-0.28082
C	-1.6847411771	-1.834525216	-0.9797345332	 0.314946
O	-1.1624764346	-2.8277646729	-1.3972608069	-0.31184
H	 1.0018563559	 1.5631257277	 0.5299770784	 0.302619
H	 0.9403270109	-0.5849084359	-0.3683904475	 0.118366
H	-0.2666138026	-1.7250853277	 1.6489302057	 0.124178
H	-0.9327803959	 0.9661730213	 1.9796902941	 0.294015
H	-3.0080338287	 0.2242308009	 0.4904991808	 0.230031
H	-3.8586842747	-1.7139061368	-0.5733837725	 0.131415
H	-3.4035444052	-0.9469569111	-2.1204691785	 0.137413
99.1454	107.3243	150.6836	210.9616	235.698	300.3728	315.1902	492.8167	527.6681	545.5749	574.5884	620.4499	662.7678	738.0246	773.8486	838.7137	874.0565	959.0718	1007.1381	1039.8388	1052.7038	1061.2482	1120.7129	1136.9618	1166.9493	1186.6959	1250.0653	1255.3324	1295.9371	1313.3207	1353.904	1408.791	1458.956	1475.8522	1894.6998	3037.0803	3092.3205	3121.6785	3161.2194	3494.3105	3705.3503	3796.4305
OC1C(O)C11NCC1=O	O[C@H]1[C@@H](O)[C@]21NCC2=O	
InChI=1S/C5H7NO3/c7-2-1-6-5(2)3(8)4(5)9/h3-4,6,8-9H,1H2	InChI=1S/C5H7NO3/c7-2-1-6-5(2)3(8)4(5)9/h3-4,6,8-9H,1H2/t3-,4+,5-
