18
gdb 8076	3.54361	2.21767	1.74986	1.2584	71.67	-0.235	0.0197	0.2548	801.6191	0.155735	-347.803636	-347.797014	-347.79607	-347.833719	27.85	
O	-0.0537340711	 1.4184398794	-0.0459060826	-0.490076
C	-0.0011559932	 0.0161874909	 0.0251755726	 0.416677
C	 0.2401430923	-0.6771026718	 1.4013762046	-0.272643
C	-0.704388503	-1.7966060967	 0.8604451127	-0.069372
C	-1.3801572665	-0.6811326181	 0.0002527289	-0.24638
C	 0.0970112126	-2.6908039736	-0.0613644009	-0.058716
C	 0.8788735428	-2.1102082225	-0.9718672453	-0.064815
C	 0.9226949949	-0.6000140618	-1.0421155634	-0.314113
H	 0.8480256593	 1.7542509969	-0.0982558755	 0.272477
H	 1.2584523632	-0.961490212	 1.6792954528	 0.087462
H	-0.2280759975	-0.0954888214	 2.1995936463	 0.099594
H	-1.3203606395	-2.3445741648	 1.5727466402	 0.064076
H	-2.1028840976	-0.1003633796	 0.5787914061	 0.103758
H	-1.8036253171	-0.9641911941	-0.9661888075	 0.094078
H	 0.0226920459	-3.7696913676	 0.0322025611	 0.086474
H	 1.48335296	-2.6816731266	-1.6697871813	 0.08816
H	 0.6158917103	-0.2420003787	-2.0346786393	 0.11178
H	 1.9531097842	-0.2394599979	-0.8919150195	 0.091579
248.3012	256.5776	331.5009	339.5617	421.3298	462.5905	474.9452	492.7648	631.3248	700.9708	720.837	848.9304	858.7804	896.1499	913.7432	946.2718	950.4337	956.114	978.9146	1016.7738	1057.6739	1072.3315	1097.3836	1149.6514	1166.3107	1175.0159	1213.123	1235.1583	1249.5301	1265.5941	1331.7025	1347.9054	1382.4995	1397.2015	1471.1507	1474.6047	1508.0807	1699.0547	2980.4166	3026.8083	3052.4014	3061.8049	3109.9515	3117.4732	3123.6964	3162.4921	3186.7032	3797.4259
OC12CC(C1)C=CC2	O[C@@]12C[C@@H](C1)C=CC2	
InChI=1S/C7H10O/c8-7-3-1-2-6(4-7)5-7/h1-2,6,8H,3-5H2	InChI=1S/C7H10O/c8-7-3-1-2-6(4-7)5-7/h1-2,6,8H,3-5H2/t6-,7-
