21
gdb 104298	2.83143	1.34881	1.18662	1.9453	77.	-0.2265	0.0703	0.2967	1138.5164	0.182571	-424.208714	-424.199825	-424.198881	-424.241755	34.631	
C	-0.3980777514	 1.6907293053	 0.0758903536	-0.439434
C	-0.0013188119	 0.2110094206	 0.0629083392	 0.271904
C	-1.2411275292	-0.683761348	-0.0901273092	-0.110021
O	-1.9110595465	-0.3278890991	-1.2920275085	-0.428928
C	 1.0137788879	-0.1147084255	-1.0661551521	-0.129099
O	 1.8238033636	-1.1981130888	-0.6070094627	-0.263069
C	 1.8646797628	-1.1333102803	 0.7949185691	 0.117704
C	 2.2083268194	 0.1778506558	 1.4527505067	-0.354001
C	 0.7584326674	-0.2562565142	 1.3043288468	-0.108483
H	 0.4794755361	 2.3288886206	 0.2160329733	 0.109494
H	-0.8886736038	 1.9705154085	-0.8599180954	 0.134675
H	-1.0973946486	 1.8983640264	 0.8931915553	 0.109367
H	-0.9224334796	-1.7365030889	-0.111179715	 0.098465
H	-1.9002905693	-0.5480300522	 0.7828481884	 0.08179
H	-2.6235187456	-0.95612611	-1.4383621087	 0.289295
H	 0.5199622944	-0.4227688618	-1.9899602863	 0.123044
H	 1.6374467432	 0.7630315371	-1.2863059483	 0.088123
H	 2.1582950247	-2.0772471317	 1.2383784684	 0.097871
H	 2.6302300578	 0.1326007452	 2.451108827	 0.112267
H	 2.5896891526	 0.9934338682	 0.84792143	 0.117974
H	 0.1889007659	-0.5000852673	 2.1950014585	 0.081059
115.1475	152.5161	184.0277	230.6923	236.1765	276.508	326.5361	351.728	383.2236	443.0265	508.8625	618.2153	708.2754	759.0552	795.3069	836.0332	896.3658	929.2936	961.6989	965.097	975.4021	1016.4461	1034.9183	1049.2809	1062.1485	1079.2117	1101.3061	1153.1971	1170.8552	1199.1359	1206.7776	1209.1145	1254.2442	1288.0873	1293.9393	1326.4464	1380.0617	1397.083	1407.925	1453.225	1479.7867	1490.3725	1503.7652	1517.124	1530.6884	2964.7619	3002.4127	3011.1108	3036.5871	3100.7673	3109.4853	3121.7833	3132.9189	3159.9545	3184.9772	3217.5463	3838.9696
CC1(CO)COC2CC12	C[C@@]1(CO)CO[C@H]2C[C@@H]12	
InChI=1S/C7H12O2/c1-7(3-8)4-9-6-2-5(6)7/h5-6,8H,2-4H2,1H3	InChI=1S/C7H12O2/c1-7(3-8)4-9-6-2-5(6)7/h5-6,8H,2-4H2,1H3/t5-,6+,7-/m1/s1
