19
gdb 61531	3.34128	0.96066	0.84486	6.9271	76.33	-0.272	0.0293	0.3014	1390.6321	0.158714	-419.195048	-419.185769	-419.184825	-419.22943	34.536	
C	-0.1239282047	 1.4987962068	 0.0195138522	-0.464366
C	 0.0612524525	-0.0045526349	 0.0650250424	 0.311579
C	-1.1398419015	-0.7481582091	 0.6393671103	-0.268748
C	-0.9147780562	-2.2534107163	 0.9109790488	-0.041206
O	 0.0691828433	-2.4905771924	 1.8864568571	-0.42855
C	-2.1794108895	-2.8566871033	 1.3706137857	 0.29499
N	-3.1897842212	-3.3108365705	 1.6970967493	-0.320318
C	 0.9619983964	-0.6266719863	-0.9413850035	-0.273514
N	 1.3871600466	-0.5253340052	 0.4697095823	-0.356404
H	 0.752219123	 1.9939732258	-0.411546864	 0.117063
H	-0.9939436023	 1.7674237963	-0.5889257687	 0.135618
H	-0.2856570959	 1.9018218568	 1.0253806702	 0.13392
H	-1.4219046113	-0.2826794472	 1.5908947902	 0.128753
H	-1.9902014959	-0.6284429837	-0.0421487997	 0.123597
H	-0.6678004798	-2.7570174534	-0.0400868809	 0.107003
H	 0.8321507827	-1.9500001463	 1.6005014194	 0.305328
H	 0.79928074	-1.6388102244	-1.2985145744	 0.132517
H	 1.4381008062	 0.0281970072	-1.6657154901	 0.122212
H	 2.0564091377	 0.2281065201	 0.5988826834	 0.240523
49.918	113.0286	136.799	221.217	238.2772	285.1188	324.0709	366.5553	380.7099	406.2869	492.4083	543.905	592.7095	676.4903	722.6225	811.5462	879.6061	910.2566	941.4726	958.9473	984.0199	989.7076	1046.919	1069.1433	1112.8027	1129.8009	1145.3625	1242.4174	1261.0277	1274.9587	1321.4739	1348.2486	1371.4543	1398.5365	1419.4868	1468.3166	1486.1895	1495.8527	1502.0038	1522.8268	2366.5191	2949.2637	3029.0375	3037.5357	3080.5076	3098.2712	3103.8017	3118.5544	3201.7809	3511.6091	3528.2341
CC1(CC(O)C#N)CN1	C[C@@]1(C[C@@H](O)C#N)CN1	
InChI=1S/C6H10N2O/c1-6(4-8-6)2-5(9)3-7/h5,8-9H,2,4H2,1H3	InChI=1S/C6H10N2O/c1-6(4-8-6)2-5(9)3-7/h5,8-9H,2,4H2,1H3/t5-,6-/m1/s1
