19
gdb 36210	4.63271	0.95045	0.87442	0.5428	86.93	-0.2244	0.0176	0.242	1358.1768	0.159318	-348.721195	-348.712911	-348.711966	-348.754373	32.372	
C	-0.1520500413	-1.1134533238	 0.5005258303	-0.466279
C	-0.0688928839	 0.03706969	 0.1630862944	 0.31753
C	 0.0512505148	 1.4391272194	-0.2379919625	-0.459638
C	 1.4705337736	 1.948611113	-0.2018095483	 0.327504
C	 2.1259916144	 2.5424643373	-1.2043128984	-0.191469
C	 3.4744503531	 3.0215620939	-0.7885675619	-0.061385
C	 3.4747450662	 4.081219744	 0.2974381955	-0.276044
C	 3.5953633293	 2.628539012	 0.6770894165	-0.036496
C	 2.325359545	 1.8676338927	 1.0519569514	-0.315004
H	-0.232832663	-2.1307232164	 0.7934959001	 0.195671
H	-0.3599902567	 1.570770363	-1.2459182433	 0.134572
H	-0.5789364733	 2.0465490063	 0.4291052378	 0.135304
H	 1.7241459125	 2.7008469174	-2.1996464891	 0.088212
H	 4.3095918291	 2.9736836365	-1.4786653205	 0.084913
H	 4.366390174	 4.6907598283	 0.4040339819	 0.107665
H	 2.5429890218	 4.6032231484	 0.4931880578	 0.106919
H	 4.5420163399	 2.2910436732	 1.0817137792	 0.084667
H	 1.8151098486	 2.3007705676	 1.9230856593	 0.105112
H	 2.536145516	 0.8220354873	 1.31018433	 0.118245
55.3689	98.7349	180.7171	298.8491	333.9854	343.2322	373.1993	474.4474	499.437	617.064	636.8717	666.1323	703.1277	789.4202	807.672	849.1357	860.0704	892.903	926.11	940.8171	962.8179	997.1861	1023.7969	1049.7643	1068.3885	1092.4846	1104.3448	1172.5793	1182.191	1213.8211	1216.779	1283.6667	1324.0026	1325.2188	1359.0723	1379.9635	1456.5813	1472.8092	1484.0581	1702.8836	2237.3517	2994.3004	3016.2575	3044.6513	3052.7297	3119.5546	3165.6172	3179.2106	3187.2035	3209.0124	3506.8241
C#CCC1=CC2CC2C1	C#CCC1=C[C@H]2C[C@H]2C1	
InChI=1S/C9H10/c1-2-3-7-4-8-6-9(8)5-7/h1,4,8-9H,3,5-6H2	InChI=1S/C9H10/c1-2-3-7-4-8-6-9(8)5-7/h1,4,8-9H,3,5-6H2/t8-,9+/m0/s1
