19
gdb 89033	4.53873	0.69289	0.64372	2.0936	74.21	-0.2457	0.0575	0.3031	1742.9764	0.158491	-456.366611	-456.356626	-456.355682	-456.403079	35.625	
C	 0.2424734093	 1.3660404041	-0.4575378083	-0.420412
C	-0.0686834443	 0.0396945726	 0.1885050325	 0.079508
O	 1.0027756644	-0.9020753537	 0.3271241147	-0.274351
C	 0.3841573935	-0.3923323351	 1.5210488424	 0.05503
C	 1.2682663851	 0.4144379812	 2.4385087779	-0.182575
N	 2.2244457908	-0.458318257	 3.0968611665	-0.340655
C	 2.5749087199	-0.2602806771	 4.4132081481	 0.457145
N	 3.6329559561	-1.0569954838	 4.8381680417	-0.566173
O	 2.0286726506	 0.5487909728	 5.1407436329	-0.392867
H	 1.1846658163	 1.7854665847	-0.1011946537	 0.130528
H	 0.3172613005	 1.2433103567	-1.5430841038	 0.131313
H	-0.559783241	 2.0843713332	-0.2572635888	 0.126947
H	-0.9955639436	-0.4171834135	-0.1658344858	 0.090218
H	-0.2245799664	-1.1338141688	 2.0422056098	 0.094206
H	 1.7771339811	 1.2115378069	 1.8842476325	 0.106236
H	 0.6779123457	 0.8842292396	 3.2294108863	 0.150072
H	 2.8617577319	-0.9560630995	 2.4951032799	 0.248651
H	 3.736246139	-1.9648517417	 4.4094212099	 0.247001
H	 3.7198712511	-1.0692478719	 5.8431724554	 0.260178
32.0588	46.4205	88.2203	160.9034	190.7972	241.8126	271.4982	377.8305	381.402	449.8268	470.12	487.8763	550.423	580.3736	661.4252	759.9833	776.9926	831.0256	909.7497	936.9173	996.4107	1027.967	1092.1609	1100.3327	1113.7272	1158.8069	1174.7827	1187.9038	1260.8596	1306.7999	1318.1397	1363.076	1408.3041	1423.0269	1470.0431	1490.1344	1491.6419	1511.7174	1545.0288	1628.145	1800.9155	3035.5101	3042.5448	3078.6758	3095.0156	3101.4883	3113.7948	3140.3131	3571.9797	3628.415	3686.2334
CC1OC1CNC(N)=O	C[C@H]1O[C@H]1CNC(=O)N	
InChI=1S/C5H10N2O2/c1-3-4(9-3)2-7-5(6)8/h3-4H,2H2,1H3,(H3,6,7,8)	InChI=1S/C5H10N2O2/c1-3-4(9-3)2-7-5(6)8/h3-4H,2H2,1H3,(H3,6,7,8)/t3-,4+/m1/s1
