16
gdb 29459	3.30531	1.62373	1.09135	2.4114	77.92	-0.1629	0.0547	0.2177	1047.4195	0.127685	-396.962124	-396.95438	-396.953436	-396.993747	30.623	
N	 0.0358534633	 1.4230352916	 0.1616083781	-0.609248
C	 0.0361058332	 0.019779027	 0.0482498505	 0.077572
C	-1.0510804185	-0.81805157	-0.0031677912	-0.163119
N	-0.6213426958	-2.1649061379	-0.1107556875	-0.424944
C	 0.7445981308	-2.1207950633	-0.0261537702	 0.384374
C	 1.2088508435	-0.8147662637	 0.0325557622	 0.291163
C	 2.6397574956	-0.8933944127	 0.0290687317	-0.350096
C	 2.9641624659	-2.2269445035	-0.0248971592	-0.069182
N	 1.7957250738	-2.9910048453	-0.0687324616	-0.405985
H	 0.7527078858	 1.8490695653	-0.4136579651	 0.239218
H	-0.8583632058	 1.8276037862	-0.0871327228	 0.234083
H	-2.1044899049	-0.5892328229	-0.0254120347	 0.094955
H	-1.1841658353	-2.9282707989	 0.2266623603	 0.247219
H	 3.351867497	-0.0836527084	 0.0717860683	 0.087184
H	 3.924914501	-2.7158691033	-0.0264262466	 0.111261
H	 1.7590553602	-3.9935655701	-0.0909749123	 0.255545
171.6324	220.0706	227.6248	270.781	272.5601	333.9616	406.2766	529.8052	562.7097	600.2194	614.1982	646.3939	666.8682	689.9129	746.6136	787.9633	798.5103	817.6849	925.5136	1048.8224	1061.2281	1079.0244	1117.2404	1172.3083	1222.5528	1281.8003	1318.6062	1354.8548	1395.7365	1500.0064	1509.7693	1547.264	1612.2736	1633.2573	1659.4867	3244.1202	3257.389	3269.881	3520.6412	3610.0349	3645.0948	3696.5664
NC1=CNC2=C1C=CN2	Nc1c[nH]c2c1cc[nH]2	
InChI=1S/C6H7N3/c7-5-3-9-6-4(5)1-2-8-6/h1-3,8-9H,7H2	InChI=1S/C6H7N3/c7-5-3-9-6-4(5)1-2-8-6/h1-3,8-9H,7H2
