12
gdb 131325	5.61411	1.39325	1.11624	4.4218	60.64	-0.2386	0.0174	0.256	967.3133	0.081516	-464.996306	-464.990025	-464.989081	-465.026879	24.062	
O	-0.0322059394	 1.249061769	 0.0101547552	-0.406929
C	 0.0415009428	-0.0797944581	 0.002209181	 0.491411
N	 1.1389726424	-0.7898484673	-0.0088298313	-0.346054
N	 0.6350026126	-2.0708172835	-0.0126602494	 0.100339
N	 1.1700891342	-3.3101762364	-0.0231602983	-0.264908
C	 0.0551108906	-4.0454918822	-0.0199819412	 0.026887
N	-1.1445720169	-3.3760111308	-0.008574139	-0.398357
C	-0.7073176409	-2.1331972657	-0.0043613393	 0.504583
N	-1.1200904901	-0.8162053926	 0.0054646962	-0.467239
H	 0.871967589	 1.5916102684	 0.0060416379	 0.331544
H	 0.106999842	-5.1235244347	-0.0263606474	 0.129134
H	-2.0581723163	-0.4560380262	 0.0140928257	 0.29959
149.0801	295.3609	343.5836	352.7775	401.9404	411.1842	560.4945	614.3235	660.8033	703.0999	753.2863	808.6177	867.7037	878.5529	984.6409	1030.0508	1175.4529	1182.126	1207.448	1263.312	1278.1849	1360.1983	1438.0506	1468.2127	1553.4742	1633.5502	1653.0173	3267.1713	3693.5267	3792.1802
OC1=NN2N=CN=C2N1	Oc1nn2ncnc2[nH]1	
InChI=1S/C3H3N5O/c9-3-6-2-4-1-5-8(2)7-3/h1H,(H2,4,5,6,7,9)	InChI=1S/C3H3N5O/c9-3-6-2-4-1-5-8(2)7-3/h1H,(H2,4,5,6,7,9)
