19
gdb 69980	2.46689	1.85498	1.37464	2.393	74.24	-0.2122	0.0625	0.2747	991.6361	0.158829	-422.968315	-422.960359	-422.959414	-423.000005	32.788	
O	 0.1170397584	 1.3907140439	-0.0910462808	-0.463664
C	 0.0075184068	 0.0235835686	-0.0017620894	 0.402101
C	-0.3385743537	-0.794523966	-1.1871206386	-0.342909
C	-1.200813432	-0.9410748115	 0.0572788396	-0.161713
C	-0.4899191946	-1.7677825141	 1.1515073578	-0.086607
C	 0.4798911862	-2.9262923546	 0.7482386929	-0.244369
C	 1.6910930578	-1.9346815197	 0.7797917756	-0.309276
C	 0.7102157967	-0.7757944339	 1.1222755945	 0.344344
O	 1.0068904511	 0.1203729927	 2.1585929328	-0.501997
H	 0.1941993541	 1.7132130924	 0.8166138838	 0.294408
H	-0.8154309986	-0.2161362615	-1.9730504431	 0.121527
H	 0.2934323511	-1.5967497492	-1.5598550972	 0.106353
H	-2.2674064137	-0.7555707074	 0.0117724323	 0.087359
H	-1.0681871574	-1.8983279746	 2.0673431818	 0.066158
H	 0.5463502528	-3.7207343913	 1.4948809397	 0.097439
H	 0.2768201912	-3.3888231533	-0.2197457805	 0.107402
H	 2.3859446829	-2.1371393375	 1.6015127868	 0.091211
H	 2.2735547135	-1.8252501909	-0.1388417901	 0.108436
H	 1.2166007873	-0.377372812	 2.9549576922	 0.283797
157.2484	229.2849	241.5343	258.3953	303.6519	382.5564	426.7917	440.0322	466.4466	494.0766	606.2263	631.9779	724.143	757.0452	791.1025	847.1377	883.6736	898.1271	938.1564	939.9183	973.409	993.1831	1038.7227	1070.0324	1073.6038	1096.1903	1102.2564	1125.7819	1180.8801	1203.4124	1217.8838	1242.6654	1269.6591	1278.2223	1288.9907	1325.2469	1394.7717	1436.216	1470.2671	1491.4667	1514.0092	3046.6243	3069.4513	3096.4916	3101.0861	3111.2343	3122.6103	3177.5514	3195.7496	3770.1733	3822.3244
OC12CC1C1CCC21O	O[C@]12C[C@H]1[C@H]1CC[C@@]21O	
InChI=1S/C7H10O2/c8-6-2-1-4(6)5-3-7(5,6)9/h4-5,8-9H,1-3H2	InChI=1S/C7H10O2/c8-6-2-1-4(6)5-3-7(5,6)9/h4-5,8-9H,1-3H2/t4-,5+,6+,7-/m1/s1
