15
gdb 29414	5.58144	0.99238	0.84346	1.431	73.51	-0.1803	-0.0081	0.1723	1283.2659	0.115275	-450.195078	-450.187051	-450.186107	-450.227686	30.013	
N	 0.0711804454	 1.4118022074	 0.1543887184	-0.599389
C	-0.0265730088	 0.0220037144	 0.0536083475	 0.292457
C	-1.14677323	-0.7743823614	 0.0262779626	-0.191288
N	-0.6600424761	-2.0789477914	-0.0018631639	-0.282485
C	 0.683684447	-1.9849567982	 0.0101675889	 0.492308
N	 1.5266726321	-3.0926821482	-0.0107325668	-0.394393
C	 1.1220789142	-4.3918802966	-0.0515183738	 0.150145
O	-0.0396256485	-4.7566518476	-0.0764369976	-0.335524
N	 1.1182706586	-0.7429286956	 0.0410714826	-0.401613
H	 0.9736606854	 1.7339076126	-0.1701868855	 0.247427
H	-0.6701952167	 1.9032216419	-0.3260748296	 0.241848
H	-2.2005379019	-0.5587645137	 0.0346732393	 0.118539
H	-1.1525614328	-2.9590278407	-0.0318954395	 0.287448
H	 2.5116847595	-2.8750402013	 0.0088960914	 0.275537
H	 1.9751315624	-5.0921601616	-0.060040214	 0.098983
80.8532	183.5803	195.5881	218.0912	299.4987	306.525	385.6529	458.1257	587.7296	598.5092	623.8601	626.0485	672.7891	719.8696	734.1414	780.8481	877.6888	1006.3039	1007.918	1032.8334	1095.2499	1113.8759	1159.2033	1282.2407	1319.7501	1405.1427	1431.5947	1445.8838	1558.3929	1609.8155	1632.566	1651.0791	1773.6584	2987.5918	3288.5966	3545.9197	3627.0221	3633.7043	3641.9474
NC1=CNC(NC=O)=N1	Nc1c[nH]c(NC=O)n1	
InChI=1S/C4H6N4O/c5-3-1-6-4(8-3)7-2-9/h1-2H,5H2,(H2,6,7,8,9)	InChI=1S/C4H6N4O/c5-3-1-6-4(8-3)7-2-9/h1-2H,5H2,(H2,6,7,8,9)
