20
gdb 107483	2.06105	1.78299	1.2392	1.4441	79.08	-0.2289	0.0763	0.3052	1105.3274	0.170397	-403.083628	-403.075025	-403.074081	-403.116727	33.192	
C	-0.1829794289	 1.5622789357	 0.1172964853	-0.386199
C	 0.0676475003	 0.050419818	 0.0211179027	-0.309299
C	 0.7498520125	-0.3649822353	-1.2491478897	 0.245868
N	 1.5239242953	-1.6348517913	-1.3764258583	-0.383485
C	 2.1795042836	-0.3390510799	-1.6870758616	-0.110892
C	 1.7970245745	-0.0123709084	-3.1380809951	-0.316569
C	 0.3208821177	-0.082050256	-2.6879051319	 0.447048
C	-0.9023416311	-0.4425368998	-3.3969069773	-0.265823
O	-0.6147534383	 0.9234131687	-3.0335262453	-0.280282
H	 0.7609265051	 2.1163643813	 0.0920427867	 0.113731
H	-0.7963319985	 1.9048134375	-0.7186180939	 0.150938
H	-0.6954068826	 1.8103553771	 1.0516435202	 0.10911
H	 0.6807094714	-0.2816863086	 0.869708981	 0.09468
H	-0.8854430604	-0.4888792017	 0.1084862931	 0.108485
H	 1.8065332144	-1.8941230149	-0.430186633	 0.224122
H	 3.0624416765	-0.0179854399	-1.148323183	 0.096012
H	 2.0576981676	 1.0074789916	-3.4325169056	 0.11808
H	 2.1294324099	-0.7255855415	-3.8959637538	 0.111136
H	-0.8681770133	-0.6508737729	-4.4650011822	 0.117776
H	-1.7289590757	-0.9038413997	-2.8587893582	 0.115564
86.0977	139.2894	166.9883	197.5763	260.8107	292.7783	388.5982	408.3897	444.5606	511.1058	599.7888	630.7113	755.12	803.0766	846.5146	868.918	883.671	902.7199	938.8118	955.5671	979.7761	1026.3352	1050.413	1091.9664	1107.975	1116.4179	1124.9183	1145.8262	1160.7669	1178.685	1224.6402	1265.8813	1321.9136	1336.8121	1355.2728	1410.2211	1426.4708	1446.3308	1475.1416	1482.6344	1497.9738	1515.7772	1539.7877	3009.7402	3039.558	3044.3642	3064.0072	3085.8461	3106.9081	3124.9511	3138.1768	3173.0459	3191.2725	3454.5721
CCC12NC1CC21CO1	CC[C@]12N[C@H]1C[C@]12CO1	
InChI=1S/C7H11NO/c1-2-7-5(8-7)3-6(7)4-9-6/h5,8H,2-4H2,1H3	InChI=1S/C7H11NO/c1-2-7-5(8-7)3-6(7)4-9-6/h5,8H,2-4H2,1H3/t5-,6+,7-/m0/s1
