19
gdb 68149	3.45016	1.27293	1.09822	2.965	76.07	-0.2508	-0.0331	0.2177	1146.6546	0.158212	-423.018848	-423.010418	-423.009474	-423.052886	31.984	
C	-0.0112353325	 1.5277321703	 0.0106169808	-0.50132
C	 0.0321026085	 0.0196798736	 0.0429940861	 0.263779
C	 1.0496244328	-0.8346549348	-0.7857108424	-0.297097
C	 0.5700944656	-1.9289732578	 0.2084374648	 0.3506
C	 0.5195426536	-0.8055185798	 1.2813162282	-0.297096
O	-0.8074525842	-2.1193826474	-0.1421607991	-0.324551
C	-1.2608039295	-0.7532532873	-0.2776750639	-0.107353
C	 1.2749902705	-3.2348986948	 0.4075700222	 0.061967
O	 2.4399082702	-3.3145713067	 0.7077149023	-0.262293
H	 0.9653197694	 1.956768487	 0.2550598911	 0.123973
H	-0.2988212357	 1.8936102468	-0.9817347762	 0.122342
H	-0.7384071204	 1.9177687121	 0.7320232926	 0.122342
H	 0.8438899709	-1.0122756618	-1.8442614609	 0.103526
H	 2.0878778025	-0.5436827149	-0.6236899813	 0.119877
H	 1.509617327	-0.5119031197	 1.6312116435	 0.119879
H	-0.1713365508	-0.9564629948	 2.1145669216	 0.103525
H	-2.0713747687	-0.5531573237	 0.43337759	 0.102206
H	-1.6278779386	-0.577528482	-1.2960253068	 0.102205
H	 0.6381204995	-4.1332649245	 0.2565689774	 0.093489
19.0379	155.5895	187.9126	216.1339	282.2766	300.2791	399.8378	446.9942	476.8717	536.7574	588.3875	680.3234	716.833	795.6949	869.7557	873.0666	929.4034	944.248	962.9125	999.4084	1002.3509	1042.5367	1044.5601	1110.21	1142.4853	1159.2592	1168.2228	1175.5238	1229.139	1256.5346	1274.9875	1299.7448	1381.13	1409.5581	1417.5962	1472.3934	1491.5355	1493.9205	1505.6645	1532.0037	1824.7862	2902.8386	3018.9069	3026.8703	3060.8192	3066.9433	3072.0704	3088.7356	3101.9105	3142.5747	3149.3509
CC12CC(C1)(OC2)C=O	C[C@@]12C[C@@](C1)(OC2)C=O	
InChI=1S/C7H10O2/c1-6-2-7(3-6,4-8)9-5-6/h4H,2-3,5H2,1H3	InChI=1S/C7H10O2/c1-6-2-7(3-6,4-8)9-5-6/h4H,2-3,5H2,1H3/t6-,7+
