18
gdb 55755	3.98495	1.05103	0.99616	3.1275	73.34	-0.2344	0.0217	0.2561	1252.531	0.146017	-439.040667	-439.031936	-439.030992	-439.074904	32.036	
C	 0.0219835288	 1.4590748784	-0.1136814808	-0.467765
C	 0.0088945671	-0.0315534579	 0.0948941743	 0.365339
N	 0.0491022489	-0.6935137724	 1.1745312804	-0.509714
O	-0.0719931495	-0.6647380089	-1.1066843099	-0.278006
C	-0.0316313559	-2.0559157928	-1.0726824609	 0.4174
C	 1.2342641622	-2.8493669373	-1.256712465	-0.341675
C	 0.0819007333	-3.0123595755	-2.220568463	-0.005803
O	-0.9125408972	-3.8849011129	-1.6775533127	-0.287925
C	-1.1510713666	-2.9572894148	-0.5754957936	-0.129203
H	 0.8888690437	 1.7469986218	-0.7164293289	 0.149029
H	-0.8710859259	 1.7694697617	-0.6643821538	 0.150763
H	 0.0571285902	 1.9871403857	 0.8401678922	 0.12961
H	 0.09970858	-0.0699829893	 1.9768653906	 0.223579
H	 2.0608433294	-2.2620772213	-1.6454885641	 0.117546
H	 1.5020682235	-3.652932687	-0.5762708064	 0.120504
H	 0.1339736337	-2.8927441759	-3.2959276407	 0.11338
H	-1.026893768	-3.4187673751	 0.4071297928	 0.122542
H	-2.1430098878	-2.5016751864	-0.6654474207	 0.110398
51.4452	82.839	117.5644	147.2943	279.5007	332.3831	365.8142	414.8943	449.3245	552.2838	573.7327	719.3215	757.686	849.8564	855.4657	913.9184	920.2792	946.229	979.6085	999.1082	1007.2887	1036.5987	1068.1084	1070.5461	1074.78	1094.5217	1110.6045	1149.8637	1230.5534	1279.289	1305.375	1365.8136	1398.097	1414.4957	1470.5147	1479.0817	1482.2048	1512.846	1734.8948	3044.7349	3049.5771	3110.8698	3112.7248	3115.5559	3146.5592	3190.4216	3212.571	3517.0232
CC(=N)OC12CC1OC2	C[C]([NH])O[C@]12C[C@H]1OC2	
InChI=1S/C6H9NO2/c1-4(7)9-6-2-5(6)8-3-6/h5,7H,2-3H2,1H3	InChI=1S/C6H9NO2/c1-4(7)9-6-2-5(6)8-3-6/h5,7H,2-3H2,1H3/t5-,6+/m1/s1
