14
gdb 27398	2.04988	1.82218	0.96467	5.5095	70.14	-0.2111	-0.0034	0.2078	1121.927	0.100986	-473.856104	-473.848161	-473.847217	-473.888459	29.912	
O	 0.0599568287	 1.3124285451	-0.0501980168	-0.407901
C	-0.0370013252	-0.0229959676	 0.0196902317	 0.462797
C	-1.1692367669	-0.7239930562	-0.0960401966	-0.302079
C	-1.1615066146	-2.1809394394	-0.0037212575	 0.330265
N	-2.2655013775	-2.8345504351	-0.1184048802	-0.552893
C	 0.1674391618	-2.7507168739	 0.2192819339	-0.366006
C	 1.2435202628	-1.9605340918	 0.3214805847	 0.470356
O	 2.497059424	-2.3889524125	 0.5249647234	-0.406163
O	 1.1918830259	-0.5980034744	 0.2289116017	-0.288386
H	 0.9841381487	 1.5632872473	 0.0640446049	 0.308132
H	-2.1037318271	-0.2064100544	-0.2601923509	 0.12711
H	-2.0897384848	-3.8375784246	-0.0308233613	 0.201035
H	 0.3030993648	-3.8211288801	 0.3054261168	 0.114499
H	 3.0844382594	-1.6244312424	 0.5600491563	 0.309234
154.182	178.2824	182.4829	236.5081	261.5925	331.1683	358.4939	502.5372	516.6811	569.4679	630.2969	631.1943	647.1273	700.0968	804.4499	856.3181	890.4572	935.9212	952.9383	1016.8707	1152.7907	1189.4111	1202.9129	1265.1632	1285.5139	1324.3172	1417.5633	1438.1135	1661.7998	1714.445	1790.2596	3216.7363	3239.7705	3443.504	3810.8888	3817.3277
OC1=CC(=N)C=C(O)O1	O[C@@H]1C=C([NH])C=C(O)O1	
InChI=1S/C5H5NO3/c6-3-1-4(7)9-5(8)2-3/h1-2,6-8H	InChI=1S/C5H6NO3/c6-3-1-4(7)9-5(8)2-3/h1-2,4,6-8H/t4-/m0/s1
