20
gdb 90089	3.59743	1.25855	1.1786	1.7438	81.79	-0.219	0.0456	0.2646	1155.8173	0.169019	-402.977351	-402.96905	-402.968106	-403.009594	32.99	
C	-0.0835658836	 1.555929699	 0.1113890785	-0.437681
C	 0.0162149557	 0.0462434336	 0.0087374454	 0.02003
C	 1.2207741068	-0.5800976189	-0.694579237	-0.024063
O	 2.1155123864	-0.1262960569	 0.4611749169	-0.376312
C	 0.8824761601	-0.7424627028	 1.0475062849	 0.306424
C	 0.2296127717	-1.6920569667	 2.0748702089	-0.271371
N	-0.168649207	-2.4908983591	 0.8374435475	-0.113235
C	-0.2313526322	-3.9338888133	 0.9639497432	-0.319401
C	 1.01626452	-1.9119045393	 0.1315003057	 0.013153
H	 0.8852635008	 1.9925724295	 0.3606047639	 0.137415
H	-0.4253745565	 1.9842205171	-0.8374135323	 0.113463
H	-0.8084725026	 1.846304904	 0.8794112551	 0.113526
H	-0.937929993	-0.4363699282	-0.20977534	 0.092925
H	 1.6520122852	-0.3976572273	-1.6835471356	 0.08664
H	 0.9527544101	-2.2290381709	 2.7046779588	 0.11185
H	-0.6078636818	-1.322963258	 2.6745988868	 0.11656
H	-1.0418615071	-4.2107812547	 1.6461437144	 0.123432
H	-0.4492488675	-4.3733272396	-0.0144916152	 0.128367
H	 0.7055621164	-4.3809357058	 1.3441540297	 0.095896
H	 1.9334634582	-2.4996116717	 0.2483891104	 0.082383
145.6348	194.5403	210.6946	222.3478	288.4041	296.9607	346.2955	372.376	465.691	529.7781	606.6555	661.2627	700.191	768.9522	821.9073	844.1304	888.707	899.4073	944.8413	998.7757	1027.4738	1059.1101	1064.2933	1100.1771	1107.9044	1142.8159	1155.8608	1173.4869	1187.664	1196.0596	1225.8752	1239.3776	1263.56	1279.5322	1340.973	1396.1378	1415.0141	1448.6351	1481.2719	1494.266	1495.6225	1499.342	1506.2864	2938.2601	3006.299	3035.6755	3046.2324	3061.8235	3069.779	3088.2846	3091.1576	3101.3984	3105.0647	3138.4215
CC1C2OC11CN(C)C21	C[C@H]1[C@H]2O[C@]31CN(C)[C@@H]23	
InChI=1S/C7H11NO/c1-4-5-6-7(4,9-5)3-8(6)2/h4-6H,3H2,1-2H3	InChI=1S/C7H11NO/c1-4-5-6-7(4,9-5)3-8(6)2/h4-6H,3H2,1-2H3/t4-,5+,6-,7-/m0/s1
