12
gdb 129193	5.86033	1.08028	0.91214	4.6976	75.31	-0.2553	-0.1031	0.1522	1156.6477	0.079866	-427.853149	-427.846131	-427.845187	-427.88494	25.862	
N	-0.1081336455	 1.3419309288	 0.01047798	-0.53487
C	-0.0147691266	 0.0693578912	 0.0033576408	 0.395057
N	 1.1579251837	-0.697541962	-0.0077115429	-0.304392
N	 1.2279243318	-2.0299075944	-0.0149900386	-0.190825
C	 0.0892026393	-2.6609059667	-0.0112621771	 0.257639
N	-1.1693652893	-2.0760394321	-0.0006995173	-0.257603
C	-1.2039591405	-0.7897478375	 0.0061445025	 0.002146
C	 0.1396649774	-4.0944789588	-0.0192600755	 0.288585
N	 0.1636050211	-5.2504481663	-0.0256061312	-0.320965
H	 0.8012194219	 1.8068350793	 0.0073579393	 0.21831
H	 2.0580539835	-0.2370463026	-0.0108239402	 0.282449
H	-2.1654354269	-0.2815674589	 0.01456513	 0.164471
76.4904	163.9587	222.4326	382.529	407.428	457.1722	459.4178	556.2898	556.9906	653.9889	658.2053	736.0395	793.7324	824.1868	826.2559	990.2854	991.1962	1101.1211	1237.0851	1278.8844	1342.125	1369.8404	1454.4714	1561.9941	1639.1369	1721.8799	2359.8111	3174.232	3465.9153	3594.1665
N=C1NN=C(N=C1)C#N	[NH]c1[nH]nc(nc1)C#N	
InChI=1S/C4H3N5/c5-1-4-7-2-3(6)8-9-4/h2H,(H2,6,8)	InChI=1S/C4H8N5/c5-1-4-7-2-3(6)8-9-4/h3-4,6-9H,2H2
