19
gdb 26326	3.36616	1.03986	0.92852	4.7969	79.	-0.2177	0.027	0.2446	1343.0185	0.15938	-419.260088	-419.25063	-419.249686	-419.295267	34.42	
C	 0.0839338436	 1.4806796863	-0.233184048	-0.386285
C	 0.0154676153	-0.0110996554	 0.1250946866	 0.026676
O	 0.5034309044	-0.2323698792	 1.4427754676	-0.439755
C	-1.3822042124	-0.5513285992	-0.0001638955	 0.288983
C	-1.9825599502	-1.2771872346	-0.9904250289	-0.215679
N	-3.2806012151	-1.478205126	-0.5598903098	-0.280965
C	-3.4124257336	-0.8838018237	 0.6619569835	 0.344904
C	-4.677895575	-0.9015671542	 1.452388893	-0.498622
N	-2.2816368179	-0.3139970896	 1.0206964078	-0.363983
H	 1.0999434785	 1.8529978513	-0.0743482684	 0.115345
H	-0.1963249797	 1.6486304305	-1.2786460621	 0.102691
H	-0.6015883676	 2.0504125346	 0.4020318263	 0.121331
H	 0.6779638021	-0.5691631754	-0.5480261326	 0.078343
H	-0.2583479585	-0.1076916242	 2.0241678468	 0.288795
H	-1.6261506429	-1.6629311651	-1.9309628936	 0.129657
H	-3.9945691921	-1.9881746568	-1.0525409123	 0.262926
H	-4.989300102	-1.9222380767	 1.7028925264	 0.133976
H	-4.516149611	-0.3541191367	 2.3815827158	 0.15835
H	-5.5043961158	-0.4266171462	 0.9114017274	 0.133313
37.7192	60.503	130.1539	167.6584	246.5882	259.2792	336.0391	366.8967	397.4169	441.4553	509.5278	523.9664	634.5112	669.9249	723.93	740.0255	757.8554	902.9805	971.5561	991.9153	1020.1767	1058.1585	1061.4502	1094.0983	1108.4761	1113.8473	1221.2193	1279.6398	1303.2101	1354.2909	1382.1351	1395.8034	1411.9221	1432.8199	1446.4656	1482.4536	1488.9219	1493.2726	1502.3679	1575.4839	1614.1442	3031.0282	3032.0829	3033.1165	3080.4922	3107.3418	3118.6912	3149.637	3272.674	3662.5297	3761.7567
CC(O)C1=CNC(C)=N1	C[C@@H](O)c1c[nH]c(C)n1	
InChI=1S/C6H10N2O/c1-4(9)6-3-7-5(2)8-6/h3-4,9H,1-2H3,(H,7,8)	InChI=1S/C6H10N2O/c1-4(9)6-3-7-5(2)8-6/h3-4,9H,1-2H3,(H,7,8)/t4-/m1/s1
