16
gdb 53183	3.35921	1.13518	1.05316	1.2944	77.06	-0.2254	0.0119	0.2373	1204.9269	0.124456	-400.716102	-400.707924	-400.70698	-400.75029	29.281	
C	 0.0374390993	 1.5025519939	 0.0067749057	-0.500622
C	 0.0226876481	 0.0477331783	 0.0355708759	 0.102699
C	 0.0129267536	-1.1568374647	 0.0514453242	 0.095843
C	 0.0017997476	-2.5868126488	 0.0790783664	-0.296719
C	-0.4785367847	-3.3732326889	 1.2855440871	 0.046811
O	-1.288834104	-2.6712846577	 2.2089156805	-0.202662
C	-2.4073814043	-2.3319602954	 1.5114609126	 0.101734
N	-2.5231531337	-2.7274428404	 0.308294283	-0.249988
C	-1.2940826043	-3.4161679595	 0.0090531028	-0.041083
H	 0.8917257711	 1.876367594	-0.5685165695	 0.149525
H	-0.8722035675	 1.9010177898	-0.4561587283	 0.150936
H	 0.1095506479	 1.9228296616	 1.0161739251	 0.147864
H	 0.8312885225	-3.0756262582	-0.4259962687	 0.119112
H	 0.110987473	-4.1572826188	 1.7424058844	 0.119743
H	-3.1275505371	-1.7451762866	 2.0668061562	 0.146736
H	-1.3461609876	-4.2466248187	-0.6837517573	 0.110072
33.9861	80.5338	102.3116	235.531	244.9234	371.179	387.4968	484.0852	611.2934	637.6848	736.418	760.8094	793.5951	846.4768	888.2647	939.445	970.3813	981.2262	1049.0296	1052.9767	1067.1203	1074.0238	1089.3306	1101.7273	1131.7749	1222.2091	1283.9915	1325.3593	1356.5021	1396.1163	1415.2982	1476.2552	1479.1809	1665.4255	2369.7283	3025.8164	3085.7788	3087.9112	3138.1189	3188.6472	3200.9868	3240.9191
CC#CC1C2OC=NC12	CC#C[C@H]1[C@H]2OC=N[C@@H]12	
InChI=1S/C7H7NO/c1-2-3-5-6-7(5)9-4-8-6/h4-7H,1H3	InChI=1S/C7H7NO/c1-2-3-5-6-7(5)9-4-8-6/h4-7H,1H3/t5-,6+,7-/m1/s1
