18
gdb 37626	2.81755	2.24304	2.06713	1.1187	72.23	-0.2345	0.0951	0.3296	795.3072	0.152524	-401.917236	-401.911592	-401.910648	-401.946832	24.996	
C	-0.0246822567	 1.5733980939	 0.0173801801	-0.21679
C	 1.482743469	 1.8351590795	 0.0221547201	-0.102442
C	 2.0116849614	 0.8397863832	 1.0745264921	-0.054394
C	 2.480911973	-0.0979805221	 0.0149436963	-0.096327
C	 2.1341363238	 0.9057014766	-1.0856001413	 0.115642
O	 1.2489714264	 0.4262914319	-2.0790163256	-0.274278
C	 0.2396961035	-0.3993163526	-1.4883563446	-0.071358
C	 0.0177044124	 0.0304163371	-0.035003995	-0.028355
N	 1.2297105678	-0.3595888205	 0.7646229148	-0.10853
H	-0.500307413	 1.9464519882	 0.9299197638	 0.100693
H	-0.5350954148	 2.0024755211	-0.849390347	 0.109845
H	 1.8112116444	 2.8733179356	 0.0455223471	 0.069269
H	 2.3709257165	 1.0170956947	 2.0799740135	 0.094578
H	 3.2543050039	-0.8583122107	 0.0171695146	 0.0911
H	 2.9875453805	 1.356016759	-1.5934121384	 0.085818
H	-0.6682370814	-0.2773990745	-2.0876097018	 0.10612
H	 0.5414147951	-1.4567390246	-1.5219842747	 0.10032
H	-0.8593973515	-0.4605831656	 0.3914624459	 0.07909
272.7244	356.445	387.161	507.6569	574.0035	629.1346	666.321	757.2164	769.4163	835.8125	843.0333	852.1903	876.321	921.0958	933.1294	951.7744	967.6344	999.8863	1012.3976	1021.3339	1048.8019	1068.8108	1074.4778	1106.0558	1158.43	1182.2704	1210.8664	1219.7852	1229.1345	1253.5153	1276.9768	1309.1193	1314.1683	1339.6908	1353.0041	1357.7033	1404.4545	1482.5346	1509.1892	2995.6509	3050.7542	3072.275	3089.4676	3105.0142	3109.5034	3126.7382	3167.2468	3199.7693
C1C2C3C4C2OCC1N34	C1[C@H]2[C@@H]3[C@@H]4[C@H]2OC[C@H]1N34	
InChI=1S/C7H9NO/c1-3-2-9-7-4(1)5-6(7)8(3)5/h3-7H,1-2H2	InChI=1S/C7H9NO/c1-3-2-9-7-4(1)5-6(7)8(3)5/h3-7H,1-2H2/t3-,4-,5+,6+,7-,8?/m0/s1
