20
gdb 22157	4.2449	0.57274	0.55267	0.8463	88.68	-0.2428	0.0121	0.2549	2071.6183	0.167404	-403.093916	-403.082727	-403.081782	-403.132819	38.43	
C	-0.6589478525	 1.1914612532	 0.3261845189	-0.364072
C	 0.4827908924	 0.2692332882	-0.1385679616	-0.312149
C	 1.1957289076	-0.3652627353	 0.9658580972	 0.059149
C	 1.7805988479	-0.8706001303	 1.8899549233	 0.058736
C	 2.4844979841	-1.5055077639	 3.0028220379	-0.411743
C	 2.0696820648	-2.948675917	 3.2273416951	 0.376919
C	 0.6321519035	-3.2595415996	 3.5309628125	-0.478921
N	 3.0186936099	-3.8005667851	 3.160727687	-0.165859
O	 2.5798454876	-5.1086818691	 3.4227437409	-0.397992
H	-0.2756447708	 1.9938868632	 0.9623587761	 0.127619
H	-1.159899946	 1.6434331567	-0.5351417721	 0.114056
H	-1.40130132	 0.6313953943	 0.9014834746	 0.125755
H	 0.0802661857	-0.5053736625	-0.8039797028	 0.128998
H	 1.1937945615	 0.8444087948	-0.7456481692	 0.129336
H	 3.5666147558	-1.4866613054	 2.8383275283	 0.145137
H	 2.2930470346	-0.9356720865	 3.9243689716	 0.132772
H	 0.3774688265	-4.2693861324	 3.2073360412	 0.151924
H	 0.4512554503	-3.2026186502	 4.6116805044	 0.137858
H	-0.0231643485	-2.5355688376	 3.0413200493	 0.136668
H	 3.3838121658	-5.6196991357	 3.2829736574	 0.30581
15.513	45.0738	63.983	82.8815	128.1385	200.1748	272.1363	291.3288	307.9631	341.0007	357.6219	393.3838	448.1343	505.8824	534.8141	658.923	749.8242	784.808	817.2529	906.6525	958.3432	985.1062	1045.8841	1055.8267	1079.0804	1103.9439	1160.4557	1212.7587	1265.6183	1286.2461	1323.4515	1351.4903	1397.0986	1400.7144	1408.3256	1456.8278	1474.6047	1480.3032	1487.2888	1494.5585	1505.4814	1736.7083	2366.195	2999.2023	3019.531	3036.4903	3043.4376	3046.3567	3076.4681	3106.2611	3116.6994	3122.4497	3151.609	3821.752
CCC#CCC(C)=NO	CCC#CCC(=NO)C	
InChI=1S/C7H11NO/c1-3-4-5-6-7(2)8-9/h9H,3,6H2,1-2H3	InChI=1S/C7H11NO/c1-3-4-5-6-7(2)8-9/h9H,3,6H2,1-2H3
