17
gdb 26292	3.8032	1.30807	0.98537	2.8326	80.07	-0.2318	-0.032	0.1998	1173.4748	0.138329	-414.248458	-414.239993	-414.239049	-414.282143	29.709	
C	-7.4567*^-6	 1.4264574584	 0.1019843261	-0.343665
N	-0.0320184717	-0.025231024	 0.0749264471	-0.142154
C	 1.2582936843	-0.6902950005	 0.11894593	-0.343666
C	-1.1952036802	-0.717190465	 0.0128368835	 0.514019
N	-1.1358634532	-2.0685365631	-0.0083406784	-0.33232
C	-2.309886318	-2.6748066525	-0.069509555	 0.083221
N	-3.5145691665	-2.0969620241	-0.1112275819	-0.276366
C	-3.4468702046	-0.7621865351	-0.0848345386	 0.083222
N	-2.3537806115	-0.0197703427	-0.0247668669	-0.332323
H	 0.5686004129	 1.8087220697	-0.7552016782	 0.124881
H	-1.0153842297	 1.8126679905	 0.0648477378	 0.173855
H	 0.4917614956	 1.777362542	 1.0180910079	 0.124877
H	 1.7950426257	-0.4151548576	 1.0356911588	 0.124876
H	 1.1126500182	-1.767173698	 0.0934648445	 0.173856
H	 1.8718327715	-0.3835249855	-0.7375994286	 0.12488
H	-2.2895099468	-3.763485306	-0.0877371162	 0.121403
H	-4.3933456392	-0.2244369765	-0.1161151317	 0.121403
78.1116	96.0038	136.4217	140.0988	248.9806	263.6163	379.0601	381.05	528.4568	545.5673	561.0873	712.9703	787.7374	843.3809	994.0405	994.8483	1009.4725	1048.0884	1081.4489	1134.6725	1178.2657	1184.3551	1194.8506	1245.681	1258.2686	1355.7812	1425.1036	1427.2622	1436.0382	1447.198	1492.4505	1494.4918	1497.2891	1505.8146	1557.509	1598.3599	1637.77	3011.5889	3018.6894	3058.3996	3061.3401	3146.5651	3150.5759	3184.9687	3185.66
CN(C)C1=NC=NC=N1	CN(C)c1ncncn1	
InChI=1S/C5H8N4/c1-9(2)5-7-3-6-4-8-5/h3-4H,1-2H3	InChI=1S/C5H8N4/c1-9(2)5-7-3-6-4-8-5/h3-4H,1-2H3
