21
gdb 102712	3.21016	0.99556	0.8258	1.1264	81.72	-0.241	0.0128	0.2538	1455.4997	0.181173	-420.366829	-420.356416	-420.355471	-420.403282	36.335	
C	-0.5743649285	 0.2648199417	 1.5074222301	-0.244282
O	-0.5756877142	-0.4163060191	 0.2510362683	-0.262426
C	-1.703200673	-0.3591868042	-0.5402777719	 0.382172
C	-2.0609396135	-1.7412126556	-1.0350768459	-0.296411
C	-2.5714717404	-2.6407113825	 0.0759123615	 0.029301
C	-2.2321147902	-4.0846711491	 0.0933787885	-0.246951
N	-1.6459095363	-3.1704671159	 1.0896332613	-0.313514
N	-2.3746383589	 0.6535294617	-0.8831741562	-0.272812
C	-1.9715048825	 2.005661335	-0.5385999379	-0.330454
H	 0.0863803514	-0.3040235418	 2.165235657	 0.136887
H	-0.1988228008	 1.2882869123	 1.4202279219	 0.123584
H	-1.5775392395	 0.2829253796	 1.943540075	 0.135365
H	-2.8134500964	-1.6380960255	-1.8200881096	 0.125917
H	-1.1610414277	-2.18940733	-1.4760765142	 0.107886
H	-3.5309936636	-2.3353080039	 0.4897126887	 0.097732
H	-2.9364304294	-4.8088111815	 0.4928919661	 0.117429
H	-1.5991936388	-4.4641547602	-0.7053937557	 0.109313
H	-0.6947718818	-2.92830529	 0.8221910396	 0.233036
H	-2.390269007	 2.3175447434	 0.42609446	 0.124087
H	-0.8831419006	 2.1402664033	-0.5002656061	 0.118438
H	-2.3725888583	 2.6866506922	-1.2949997505	 0.125702
49.6671	65.3653	90.998	108.4642	166.315	190.3154	264.8499	286.6887	293.6748	330.3622	354.027	453.3221	642.8613	719.5299	802.0521	807.808	833.3405	911.0055	941.7561	962.7597	1037.8719	1052.6213	1065.6675	1114.5864	1124.7029	1144.2627	1161.7445	1172.893	1182.9277	1215.1917	1226.7063	1257.0285	1271.2105	1317.5256	1328.6124	1417.5355	1435.6722	1460.3953	1477.3334	1485.4312	1493.4392	1507.9356	1511.8159	1518.6704	1765.4394	3006.9148	3030.6333	3037.1688	3068.7511	3090.2764	3104.7539	3109.1053	3112.1699	3125.3	3127.1229	3189.873	3501.4607
COC(CC1CN1)=NC	COC(=NC)C[C@H]1CN1	
InChI=1S/C6H12N2O/c1-7-6(9-2)3-5-4-8-5/h5,8H,3-4H2,1-2H3	InChI=1S/C6H12N2O/c1-7-6(9-2)3-5-4-8-5/h5,8H,3-4H2,1-2H3/t5-/m0/s1
