23
gdb 40834	3.55036	0.98738	0.83017	1.7938	85.53	-0.2595	0.0873	0.3468	1445.0437	0.208027	-388.296034	-388.287467	-388.286523	-388.329458	33.537	
C	 0.3316673044	 1.5093094557	 0.01189497	-0.185766
O	 1.1706811721	 0.38825907	-0.2748102841	-0.246471
C	-0.2096327485	 0.1448582444	 0.0135079744	 0.080149
C	-0.5193608611	-0.611009184	 1.2849143211	 0.014566
C	-1.9953301669	-0.4402734726	 1.6890486358	-0.196252
C	-2.3333379866	-1.2361133976	 2.9586515628	-0.197509
C	-1.9702384233	-2.7200589122	 2.8083000926	-0.177225
C	-0.4981143257	-2.8953086	 2.4095442433	-0.202188
C	-0.163140469	-2.1018632613	 1.1390083931	-0.189984
H	 0.5282396846	 2.0078466928	 0.9606716036	 0.109269
H	 0.1359047999	 2.1748092855	-0.8280000052	 0.111655
H	-0.7885231881	-0.1664347013	-0.8601384002	 0.085241
H	 0.1114851676	-0.1855529588	 2.0785726288	 0.070117
H	-2.2249397403	 0.622246427	 1.8322660477	 0.090576
H	-2.6344645642	-0.7878447899	 0.8642843609	 0.091232
H	-1.7778947132	-0.8126261849	 3.8070334113	 0.092789
H	-3.3969705474	-1.1251975619	 3.1980962418	 0.089957
H	-2.1795378302	-3.2573692907	 3.7401584573	 0.089277
H	-2.6100185915	-3.1724442667	 2.0375226807	 0.091072
H	 0.1430573313	-2.5478952371	 3.2316558874	 0.093112
H	-0.2661063557	-3.9561535194	 2.2628137271	 0.090488
H	-0.7258294312	-2.5203120257	 0.2914960161	 0.087795
H	 0.898451043	-2.1991598213	 0.8886098236	 0.108103
76.7633	108.3574	168.6334	225.6939	266.1422	331.9392	393.2015	433.3812	465.6709	478.3247	530.4771	791.9031	794.8343	833.5164	858.9336	873.318	891.2871	905.1774	928.8052	968.3098	991.5883	1038.8979	1060.3358	1083.1278	1095.0807	1104.5927	1122.492	1158.635	1170.8231	1188.7973	1203.0038	1255.451	1282.2817	1287.582	1300.4552	1310.9663	1330.2992	1366.4299	1370.7811	1379.1425	1381.9788	1392.9263	1450.2207	1481.1134	1484.7139	1485.9919	1490.7118	1504.781	1530.5364	2999.0534	3001.3716	3007.9585	3011.4995	3012.2135	3016.9976	3055.2659	3060.4254	3061.3587	3066.3775	3072.2642	3075.7305	3080.1632	3164.0785
C1OC1C1CCCCC1	C1O[C@H]1C1CCCCC1	
InChI=1S/C8H14O/c1-2-4-7(5-3-1)8-6-9-8/h7-8H,1-6H2	InChI=1S/C8H14O/c1-2-4-7(5-3-1)8-6-9-8/h7-8H,1-6H2/t8-/m1/s1
