19
gdb 95298	2.09703	1.82024	1.39938	1.251	69.74	-0.2511	0.0558	0.3068	1013.2263	0.159637	-460.151918	-460.143684	-460.14274	-460.18432	32.422	
O	 0.3187509156	 1.0985388087	-0.6470048328	-0.44697
C	 0.0249182421	-0.1004097173	 0.0466355154	 0.062605
C	 0.4486832546	-0.1706720261	 1.5239116969	-0.265204
C	-0.3391332858	-1.3830353249	 2.0584890458	-0.233204
C	-1.6925589082	-1.2693839246	 1.3579771855	 0.089268
O	-2.4777841485	-0.1731483741	 1.8954268254	-0.297159
C	-2.4393088287	 0.5438833917	 0.6460490902	-0.132153
C	-1.4674102396	-0.4923723517	 0.0356479211	 0.347457
O	-1.8725077765	-1.1174597233	-1.1518174072	-0.491151
H	-0.0153345576	 1.8351763703	-0.123312331	 0.28149
H	 0.5485789669	-0.8845973055	-0.514743125	 0.097911
H	 1.5308769464	-0.2577485038	 1.6430044903	 0.107206
H	 0.1283945644	 0.7405580449	 2.0444994291	 0.106651
H	 0.1460824813	-2.3209870121	 1.7621654472	 0.105953
H	-0.4452938176	-1.3895542886	 3.1464690311	 0.114339
H	-2.2717700776	-2.1958134996	 1.3023446956	 0.081839
H	-3.411943427	 0.5536971749	 0.1395871508	 0.108104
H	-2.0882000995	 1.5777700538	 0.7736654208	 0.076536
H	-1.5171000247	-0.6009842024	-1.8850877893	 0.286482
98.0525	189.7484	242.9206	251.8706	297.3909	318.0297	346.2569	406.9351	448.418	525.3054	550.6649	619.4247	672.5766	811.1807	828.9655	890.9645	915.8951	956.2345	996.2074	1012.3861	1016.0692	1048.3153	1060.6921	1115.9483	1134.6566	1144.8214	1155.5274	1202.4361	1237.4598	1269.8962	1286.9935	1301.8445	1322.8661	1339.9887	1346.6399	1356.7666	1410.211	1432.0231	1472.0415	1494.136	1514.3623	2994.2932	3030.9397	3037.5844	3043.9559	3053.2155	3070.4781	3101.1186	3109.1735	3786.819	3801.8617
OC1CCC2OCC12O	O[C@H]1CC[C@H]2OC[C@@]12O	
InChI=1S/C6H10O3/c7-4-1-2-5-6(4,8)3-9-5/h4-5,7-8H,1-3H2	InChI=1S/C6H10O3/c7-4-1-2-5-6(4,8)3-9-5/h4-5,7-8H,1-3H2/t4-,5+,6+/m0/s1
