21
gdb 115709	2.48234	1.13371	0.84652	1.2691	74.77	-0.2404	0.0653	0.3056	1395.0517	0.180665	-461.333066	-461.322763	-461.321819	-461.368973	36.93	
C	 0.0526372846	 1.5576511361	-0.2172339347	-0.414728
C	 0.1091056362	 0.0862938313	 0.1828050046	 0.114907
O	 0.6030399642	-0.1010508385	 1.5082272216	-0.432409
C	-1.2601536172	-0.5783501746	 0.0377166772	 0.103415
O	-1.7317686408	-0.5575789188	-1.3280156618	-0.297331
C	-1.879275394	-1.9972692651	-1.3521777493	-0.072953
C	-1.3842620883	-2.1231172982	 0.1032689683	-0.040633
C	-0.1462567074	-2.9674924908	 0.3388742821	-0.106102
O	-0.5458357053	-4.3228248063	 0.169557766	-0.429408
H	 1.0431257544	 2.0144185063	-0.1428456677	 0.121056
H	-0.3127495654	 1.6563511107	-1.2429287717	 0.143927
H	-0.6328561591	 2.1105550274	 0.4384646758	 0.103693
H	 0.826520025	-0.4311105211	-0.46295897	 0.091503
H	 0.0686878541	 0.4416273473	 2.0991637549	 0.279776
H	-1.9686291753	-0.0587197853	 0.704259843	 0.058791
H	-2.9170708635	-2.2965168707	-1.5361865386	 0.103895
H	-1.2348022194	-2.4626443662	-2.1080887684	 0.10415
H	-2.1617676494	-2.4583070703	 0.7934100109	 0.08737
H	 0.6430601177	-2.7006185246	-0.3810412734	 0.085374
H	 0.2496576207	-2.7781282103	 1.3459595462	 0.108353
H	 0.227183588	-4.8806442483	 0.295464125	 0.287353
45.9947	92.5849	101.0348	132.907	208.2041	241.6954	261.2434	294.3633	296.1186	345.8842	385.6286	435.8128	480.0684	554.7889	804.95	824.3818	887.7786	920.3836	925.6408	990.4642	1009.7655	1036.0734	1058.1148	1074.5912	1101.3823	1107.5367	1150.9834	1170.6763	1180.9045	1225.1154	1252.9168	1265.2687	1281.7062	1293.3141	1335.2103	1346.8635	1380.5605	1397.5751	1407.3808	1415.9164	1462.9923	1491.4597	1495.3742	1519.6223	1532.2644	2958.0801	2978.6824	3021.1359	3022.9944	3028.4422	3060.1984	3063.5438	3088.6609	3100.4522	3130.1002	3795.9918	3830.9923
CC(O)C1OCC1CO	C[C@@H](O)[C@H]1OC[C@H]1CO	
InChI=1S/C6H12O3/c1-4(8)6-5(2-7)3-9-6/h4-8H,2-3H2,1H3	InChI=1S/C6H12O3/c1-4(8)6-5(2-7)3-9-6/h4-8H,2-3H2,1H3/t4-,5-,6-/m1/s1
