21
gdb 75360	2.12625	1.8412	1.37035	1.516	83.62	-0.2315	0.0236	0.2551	1072.4696	0.182553	-387.101152	-387.092466	-387.091522	-387.133991	33.683	
C	 0.3790264038	 1.3869944152	 0.086503176	-0.505944
C	 0.0478614623	-0.0718405067	 0.0429778057	 0.29739
C	-0.0918982357	-0.8432394678	-1.0385486349	-0.173237
C	-0.3890651607	-2.2920272708	-0.7246575092	-0.285753
C	-0.2295262491	-2.3475464976	 0.8035235829	-0.120685
C	 1.2017862086	-2.4842584911	 1.3657805649	-0.084102
O	 1.1724914264	-1.1616152584	 1.9430932282	-0.32951
C	-0.1192984032	-0.8839284625	 1.3155223171	 0.358322
C	-1.1045527606	-0.3319977064	 2.3263861637	-0.467077
H	 1.2814705785	 1.5543248527	 0.6865528584	 0.141028
H	 0.5519359094	 1.7903949834	-0.9147818023	 0.120571
H	-0.4238100273	 1.9714727688	 0.5524146824	 0.124962
H	 0.0009370732	-0.4831914551	-2.0591143094	 0.086203
H	-1.4001991303	-2.5785711539	-1.0440409367	 0.104021
H	 0.2972172969	-2.9780641058	-1.2388066383	 0.103256
H	-0.9660934139	-2.9753893322	 1.3066444291	 0.072738
H	 1.3553544804	-3.2533837141	 2.1314398802	 0.099371
H	 1.9821517282	-2.5835984796	 0.5990055963	 0.095153
H	-0.7586281922	 0.6315698099	 2.7145052157	 0.126356
H	-2.0886981911	-0.184034183	 1.8689962091	 0.117246
H	-1.2075434137	-1.0175537052	 3.172134291	 0.119692
103.5567	174.9386	192.0945	221.1731	243.722	252.669	280.6456	379.2243	428.972	551.8735	590.1798	634.1353	713.0094	774.0177	830.2707	859.4406	882.5867	908.0338	939.9432	962.0271	1008.3181	1026.9961	1063.2577	1072.5937	1076.5858	1108.6194	1130.655	1162.0113	1177.359	1204.1571	1239.718	1269.2742	1313.4019	1320.6361	1348.2888	1368.9911	1401.2959	1409.4748	1475.944	1480.6914	1488.0164	1490.0597	1496.1215	1521.5544	1715.557	3005.0194	3010.3189	3023.3171	3033.9698	3034.58	3054.2871	3073.9915	3100.285	3104.5496	3111.6785	3114.2742	3172.9902
CC1=CCC2COC12C	CC1=CC[C@H]2CO[C@@]12C	
InChI=1S/C8H12O/c1-6-3-4-7-5-9-8(6,7)2/h3,7H,4-5H2,1-2H3	InChI=1S/C8H12O/c1-6-3-4-7-5-9-8(6,7)2/h3,7H,4-5H2,1-2H3/t7-,8-/m0/s1
