22
gdb 60110	3.86989	0.95638	0.85964	3.3264	83.03	-0.2426	0.0731	0.3157	1434.4847	0.194451	-404.315168	-404.30605	-404.305106	-404.349281	35.213	
C	-0.0035848017	 1.6317283512	 0.2444550467	-0.383285
C	-0.078433481	 0.1124686553	 0.3434187793	 0.16234
O	-0.0537349791	-0.2259935334	 1.7194265822	-0.451071
C	-1.3431136424	-0.4531080583	-0.3319092894	-0.336899
C	-1.3323234704	-1.9576878652	-0.4222582313	 0.359406
C	-0.9098163865	-2.8166417008	-1.6299481012	-0.293573
C	-1.9599646435	-3.8940006008	-1.195127305	-0.242676
C	-2.3294533702	-3.0050407421	-0.0015315394	-0.090123
N	-1.151742297	-2.7297802753	 0.8186395703	-0.3646
H	 0.865832822	 1.9978844791	 0.797330402	 0.122048
H	 0.0836611626	 1.9558217368	-0.7975315637	 0.102044
H	-0.8986497748	 2.0867661883	 0.6813204157	 0.116173
H	 0.8048142859	-0.3139535707	-0.1685940253	 0.04971
H	-0.4155302879	-1.1228665899	 1.7967029119	 0.293085
H	-2.2082010875	-0.1191758419	 0.2536425233	 0.109125
H	-1.4504750425	-0.036097133	-1.3400979003	 0.094775
H	-1.1630441229	-2.358814245	-2.5892898402	 0.111029
H	 0.1427429533	-3.1184156618	-1.6557911995	 0.100182
H	-2.7694938153	-3.9977425808	-1.9210018097	 0.113077
H	-1.5852594197	-4.8923054847	-0.9451534358	 0.101345
H	-3.3045748522	-2.9012958271	 0.4615171933	 0.098801
H	-0.4398360393	-3.4542576399	 0.7409011261	 0.229085
54.7014	96.3432	149.2277	230.1863	246.7021	305.8272	316.4328	379.5948	449.6967	466.9419	485.896	603.5604	713.5218	749.014	780.9644	823.6746	857.0851	895.6673	925.7658	940.4228	949.3818	960.5628	1020.2952	1045.3003	1065.4794	1086.3635	1104.9155	1125.639	1162.0685	1191.3025	1195.3713	1225.9982	1233.9085	1259.0682	1284.4966	1310.6248	1319.3686	1346.0344	1380.1489	1400.0269	1425.7885	1464.6587	1470.238	1479.7481	1488.0749	1499.4518	1500.3348	2916.3915	3028.0551	3036.6961	3042.0427	3050.5654	3073.7977	3097.6813	3108.2287	3115.1185	3117.7848	3175.3788	3459.2203	3667.1313
CC(O)CC12CCC1N2	C[C@@H](O)C[C@]12CC[C@H]1N2	
InChI=1S/C7H13NO/c1-5(9)4-7-3-2-6(7)8-7/h5-6,8-9H,2-4H2,1H3	InChI=1S/C7H13NO/c1-5(9)4-7-3-2-6(7)8-7/h5-6,8-9H,2-4H2,1H3/t5-,6-,7-/m1/s1
