18
gdb 56960	2.25038	1.18192	0.85494	5.8208	77.86	-0.2582	-0.0302	0.228	1350.6842	0.145974	-401.96282	-401.953388	-401.952444	-401.997847	33.619	
C	 0.1941579622	 1.4914250516	 0.1712630045	-0.393159
C	-0.1453038269	-0.0045835696	 0.0086248871	-0.178426
C	-1.6005560861	-0.1981248732	-0.0407372546	 0.279665
N	-2.7466576365	-0.3375661464	-0.0893425214	-0.31461
C	 0.5168772135	-0.5854073527	-1.238068776	 0.015043
C	 1.9134811297	-1.1056441217	-1.1869153637	-0.321344
C	 0.7640970866	-2.0765372946	-1.4432059834	-0.10909
C	 0.4454348044	-3.0827647371	-0.4012369318	 0.168148
O	 0.0724132344	-4.2034757538	-0.6378890866	-0.258548
H	 1.2773967199	 1.6153050842	 0.2488686087	 0.131511
H	-0.1597526336	 2.0638431227	-0.6906496142	 0.140781
H	-0.272547123	 1.902181889	 1.0695055407	 0.141936
H	 0.2183965576	-0.5367589084	 0.8949489263	 0.128292
H	 0.2265367093	-0.0680264898	-2.1482299652	 0.118877
H	 2.5913876751	-0.903516557	-2.0075150884	 0.137872
H	 2.3928148967	-1.16914028	-0.2139064024	 0.128326
H	 0.6361366549	-2.4503114745	-2.4528992344	 0.118304
H	 0.6017395318	-2.7427282887	 0.6491017949	 0.066423
43.8738	89.9724	134.6682	191.8164	211.2796	228.9077	285.3286	292.624	389.7021	417.7177	511.8673	544.6414	604.1329	775.6589	840.8264	854.3494	874.5058	934.3218	983.9453	1011.7109	1046.5018	1076.8491	1079.627	1111.4723	1138.8367	1175.3704	1190.2406	1234.406	1291.5855	1326.1378	1345.2136	1404.2688	1418.9601	1451.4721	1488.3866	1492.0681	1498.5235	1823.3988	2358.8379	2854.667	3048.0771	3050.953	3127.4597	3129.6951	3133.3309	3150.7857	3183.6616	3222.5034
CC(C#N)C1CC1C=O	C[C@@H](C#N)[C@H]1C[C@H]1C=O	
InChI=1S/C7H9NO/c1-5(3-8)7-2-6(7)4-9/h4-7H,2H2,1H3	InChI=1S/C7H9NO/c1-5(3-8)7-2-6(7)4-9/h4-7H,2H2,1H3/t5-,6-,7+/m0/s1
