14
gdb 24038	4.12775	1.03916	0.9495	3.3588	73.18	-0.266	-0.0581	0.2079	1202.7068	0.103585	-395.792363	-395.784971	-395.784027	-395.827734	26.202	
N	-0.0917868044	-1.1806796856	-0.0039046219	-0.292741
C	-0.0639195934	-0.0258746937	 0.0024360426	 0.266664
C	-0.0173883806	 1.4392305239	 0.0101294691	-0.45357
C	 1.3996779578	 1.9797453062	-0.0005611197	 0.222004
C	 2.103899629	 2.2369246734	 1.1739336544	-0.029829
N	 3.3487051524	 2.712348107	 1.1784952409	-0.241656
C	 3.8933191044	 2.9316123436	-0.0194189418	 0.084783
N	 3.322884752	 2.7327143085	-1.2088092286	-0.241661
C	 2.0783583572	 2.25703604	-1.1854294614	-0.029996
H	-0.5703370912	 1.8056211208	-0.8618606524	 0.167532
H	-0.5534375098	 1.7957824289	 0.8966393964	 0.167576
H	 1.647110277	 2.0567748458	 2.146098651	 0.12518
H	 4.9104412333	 3.3149523971	-0.0271485029	 0.130596
H	 1.6006073363	 2.0934204443	-2.1504175256	 0.125117
2.7917	96.6692	229.3089	303.0067	376.7897	412.6629	416.6223	483.4427	641.3552	669.4588	754.5205	833.9043	921.918	926.6728	961.8118	1001.4342	1024.5004	1058.5975	1142.6304	1196.4546	1220.7974	1248.4928	1259.6206	1334.114	1382.4362	1452.6184	1462.6406	1469.0912	1598.5534	1628.0848	2364.9699	3046.8616	3086.8645	3141.4554	3143.399	3173.9823
N#CCC1=CN=CN=C1	N#CCc1cncnc1	
InChI=1S/C6H5N3/c7-2-1-6-3-8-5-9-4-6/h3-5H,1H2	InChI=1S/C6H5N3/c7-2-1-6-3-8-5-9-4-6/h3-5H,1H2
