21
gdb 79199	2.30322	1.94211	1.38816	1.6953	82.	-0.2406	0.0856	0.3262	1035.1488	0.183293	-387.045372	-387.037269	-387.036325	-387.077487	32.549	
C	-0.2313504207	 1.58966776	-0.1101195068	-0.435672
C	 0.1169161493	 0.1154972975	 0.0027279765	-0.05247
C	 1.4196053485	-0.5913316202	-0.3187173864	-0.126501
C	 2.7622314621	 0.0958044048	 0.005330767	 0.052876
C	 3.2605594245	-0.7057793886	 1.2408070406	-0.22156
C	 2.0324842143	 0.0620027938	 1.8105989869	 0.004008
O	 2.3915951332	 1.1636437354	 0.9281875208	-0.281103
C	 0.8457979933	-0.635935883	 1.0999897289	 0.312352
C	 0.2384091783	-1.8449918098	 1.7678457574	-0.484207
H	-0.4717605458	 1.8338165772	-1.1516785604	 0.107865
H	-1.1260220588	 1.8052818341	 0.4860612674	 0.106851
H	 0.573546073	 2.2381032774	 0.2227257116	 0.148885
H	-0.7155157591	-0.4982046411	-0.3467580541	 0.078921
H	 1.4259326938	-1.4524801239	-0.9790939004	 0.081888
H	 3.4121555175	 0.4183501361	-0.8082854731	 0.080523
H	 3.2398252102	-1.7982414044	 1.2076691165	 0.09488
H	 4.206859241	-0.3277347231	 1.6323077113	 0.105129
H	 1.9310448643	 0.3451307646	 2.8591214221	 0.076958
H	-0.38383669	-1.5581151932	 2.6245696015	 0.118591
H	-0.398007023	-2.4024888041	 1.0733652098	 0.118395
H	 1.0068068142	-2.5345447896	 2.1378896229	 0.113389
136.4857	182.6981	195.2734	225.1559	263.6539	292.6616	407.5137	512.9374	515.5806	561.8648	691.914	713.7264	727.9436	843.531	853.3583	863.8828	883.4552	928.696	931.9458	954.9285	977.9384	1018.6481	1034.6985	1073.4866	1084.8502	1100.7569	1127.5195	1130.0544	1156.3016	1179.5951	1220.5001	1228.7493	1263.8646	1281.3727	1303.0474	1306.2587	1357.4381	1403.5785	1419.8299	1455.8881	1485.1097	1488.4346	1494.7741	1502.2153	1516.1661	3017.1205	3028.4741	3062.3248	3072.0354	3076.5703	3084.1122	3095.8644	3112.6449	3119.1051	3136.4358	3161.6949	3191.7957
CC1C2C3CC(O3)C12C	C[C@H]1[C@H]2[C@@H]3C[C@@H](O3)[C@@]12C	
InChI=1S/C8H12O/c1-4-7-5-3-6(9-5)8(4,7)2/h4-7H,3H2,1-2H3	InChI=1S/C8H12O/c1-4-7-5-3-6(9-5)8(4,7)2/h4-7H,3H2,1-2H3/t4-,5-,6+,7-,8+/m0/s1
