13
gdb 16722	6.59883	1.4922	1.33141	5.1085	65.55	-0.2464	-0.0486	0.1978	877.2133	0.097443	-357.644015	-357.63763	-357.636686	-357.674438	24.319	
N	 0.0869104232	-1.1062753678	 0.0275652703	-0.320069
C	-0.0012845864	 0.0462355018	 0.037577917	 0.263917
C	-0.0554854446	 1.4793287522	 0.0271744664	 0.258211
N	-1.1535403002	 2.1516136477	-0.0102731373	-0.276041
C	-0.7910221058	 3.5375093531	 0.0032026544	-0.015109
C	-0.0439579932	 4.0625866902	 1.213056603	-0.29258
C	 0.7581846638	 3.5953767839	 0.0373654018	-0.028911
N	 1.1267608596	 2.2031311893	 0.0806184904	-0.338604
H	-1.4335845082	 4.2069516971	-0.5561915132	 0.109129
H	-0.0963230984	 5.1342916199	 1.367292423	 0.127559
H	-0.0372168249	 3.463253442	 2.1173345114	 0.133133
H	 1.3879213853	 4.2593641814	-0.5410483731	 0.114497
H	 1.94593481	 1.868528169	-0.403632104	 0.264867
134.047	172.2096	327.7259	388.3282	431.6471	523.0216	560.9061	578.443	666.0793	732.4699	748.7894	830.9258	899.7657	957.5029	984.1358	1049.411	1052.9432	1081.4003	1101.2627	1151.9577	1180.7172	1262.237	1330.1378	1359.7107	1448.2954	1472.788	1623.8814	2362.9477	3134.5151	3179.9709	3193.1525	3229.3059	3621.9627
N#CC1=NC2CC2N1	N#CC1=N[C@H]2C[C@H]2N1	
InChI=1S/C5H5N3/c6-2-5-7-3-1-4(3)8-5/h3-4H,1H2,(H,7,8)	InChI=1S/C5H5N3/c6-2-5-7-3-1-4(3)8-5/h3-4H,1H2,(H,7,8)/t3-,4+
