16
gdb 19987	3.89533	1.36028	1.13286	1.8427	71.75	-0.2545	0.0214	0.2759	1063.4421	0.128844	-346.530137	-346.522308	-346.521363	-346.562694	29.135	
C	-0.2100388595	-1.2168002701	 0.1764041109	-0.432858
C	-0.0811307037	-0.023928144	 0.099847451	 0.34605
C	 0.0373243967	 1.4045741502	-0.0178242088	-0.172166
O	 0.5945136361	 2.120243684	 1.0992419032	-0.249885
C	 1.3493258248	 2.0879575483	-0.1120585374	 0.077664
C	 2.6480003487	 1.3639214894	-0.1037530261	-0.017528
C	 3.5881451975	 1.5317947531	-1.2751430859	-0.268262
C	 3.9298615076	 2.148429202	 0.0535917197	-0.266661
H	-0.3224598895	-2.2702632843	 0.2517175875	 0.202983
H	-0.822869151	 1.8969971537	-0.4716989329	 0.114187
H	 1.35751299	 3.0388008298	-0.6514291904	 0.091646
H	 2.6084335179	 0.3849197373	 0.360600729	 0.104162
H	 4.1424091868	 0.6610950085	-1.6056870354	 0.119528
H	 3.2838495935	 2.19429608	-2.0791375604	 0.114261
H	 3.8540715627	 3.2266224004	 0.1485223538	 0.117432
H	 4.7229183515	 1.7050070618	 0.6446301623	 0.119447
66.9199	109.1728	181.0234	240.7529	277.4415	353.1143	462.3952	552.1204	602.1731	625.579	670.8417	755.5043	793.096	833.0217	843.7153	900.5078	922.1915	977.27	993.6895	1061.272	1075.1163	1080.511	1128.192	1146.5674	1198.1656	1211.1159	1224.9241	1280.536	1328.0852	1392.7959	1471.0323	1476.8945	1509.9453	2238.7687	3074.7046	3107.841	3133.0301	3137.4838	3176.8199	3212.4197	3227.5991	3501.7597
C#CC1OC1C1CC1	C#C[C@H]1O[C@H]1C1CC1	
InChI=1S/C7H8O/c1-2-6-7(8-6)5-3-4-5/h1,5-7H,3-4H2	InChI=1S/C7H8O/c1-2-6-7(8-6)5-3-4-5/h1,5-7H,3-4H2/t6-,7+/m1/s1
