19
gdb 75324	2.41803	1.61842	1.35989	2.8222	81.36	-0.2201	-0.0047	0.2154	1053.2346	0.160503	-385.913804	-385.90604	-385.905096	-385.9458	30.783	
C	 0.0517883221	 1.4949054654	 0.0588344061	-0.502071
C	-0.0082664037	-0.0020912234	 0.007172476	 0.34592
C	-0.0258612356	-0.7259790607	-1.1171442347	-0.169607
C	-0.0155830284	-2.2367833622	-1.071055964	-0.25871
C	-0.0148791288	-2.7175162754	 0.3984135652	-0.146121
C	-1.0850369912	-1.9200394838	 1.2148247145	-0.239097
C	-0.0405509049	-0.7659980804	 1.332658631	-0.229666
C	 1.0126238358	-1.8835630828	 1.1864133542	 0.439047
O	 2.1117983433	-2.0779210027	 1.6147623502	-0.325892
H	 0.9503502352	 1.8323295836	 0.5909206876	 0.136063
H	 0.0653507653	 1.9314689282	-0.9434172206	 0.124348
H	-0.8064702987	 1.9074785678	 0.6044839101	 0.126612
H	-0.0288447261	-0.242364831	-2.0902416183	 0.086165
H	-0.877794466	-2.6551440339	-1.6092364294	 0.109097
H	 0.876972423	-2.625568236	-1.579971971	 0.122024
H	 0.0295907136	-3.8046216495	 0.4831539226	 0.085387
H	-2.0118604584	-1.6735482012	 0.693261741	 0.106334
H	-1.2991340847	-2.3880615808	 2.1782690052	 0.110665
H	-0.0258495617	-0.1203368511	 2.2107374344	 0.0795
119.2296	156.9506	206.5585	290.717	313.1086	368.0025	424.1288	459.8666	560.7224	567.575	667.0759	753.0396	773.2702	819.565	842.2242	893.7932	928.8929	938.0769	988.1087	1023.4186	1029.147	1059.7585	1067.4081	1088.2382	1114.1458	1126.973	1164.0711	1189.48	1217.6274	1255.7362	1269.1212	1305.9894	1339.7724	1363.6305	1413.1305	1476.9649	1479.8377	1487.9166	1489.7764	1722.6715	1892.2009	3003.5839	3016.5178	3031.2789	3064.4747	3066.39	3100.7972	3111.7529	3115.6026	3130.5055	3163.9335
CC1=CCC2CC1C2=O	CC1=CC[C@@H]2C[C@H]1C2=O	
InChI=1S/C8H10O/c1-5-2-3-6-4-7(5)8(6)9/h2,6-7H,3-4H2,1H3	InChI=1S/C8H10O/c1-5-2-3-6-4-7(5)8(6)9/h2,6-7H,3-4H2,1H3/t6-,7-/m1/s1
