13
gdb 10668	2.97164	2.07825	1.36266	3.9864	59.94	-0.2591	-0.0249	0.2342	862.2362	0.095586	-394.770138	-394.762619	-394.761675	-394.802002	27.582	
N	 0.4137547204	 0.4177015528	 1.1172777205	-0.533877
C	 0.0211471398	 0.0200613951	-0.1379531937	 0.297442
N	 0.7269915485	 0.2395103837	-1.1742374543	-0.517315
C	-1.2756846143	-0.7669804021	-0.1189203823	 0.192848
C	-1.4684957623	-1.8687855328	 0.8567576931	-0.191505
O	-2.1125009484	-0.6108517625	 1.0343751265	-0.258184
C	-1.9779926937	-0.839870937	-1.3868313771	 0.259583
N	-2.5229294411	-0.9047266675	-2.4033816575	-0.325502
H	 1.1917016158	 1.0605485163	 1.1233817775	 0.267452
H	-0.327221986	 0.6144935841	 1.7731736241	 0.270383
H	 0.3134512182	-0.1735752281	-2.0081711549	 0.235036
H	-2.1239033449	-2.6954627668	 0.5935616732	 0.151785
H	-0.6545376619	-2.0814811951	 1.544924435	 0.151853
77.7733	152.8718	231.7253	266.5429	295.0311	429.8102	454.9477	503.3716	547.0391	575.2431	607.7876	662.3584	728.3268	839.5401	876.7658	900.7008	945.3163	1105.6533	1138.3529	1158.5206	1174.3845	1212.3246	1334.8876	1429.0525	1507.5319	1609.64	1736.8611	2365.1498	3106.6519	3211.3821	3507.2109	3573.437	3691.1115
NC(=N)C1(CO1)C#N	NC(=N)[C@]1(CO1)C#N	
InChI=1S/C4H5N3O/c5-1-4(2-8-4)3(6)7/h2H2,(H3,6,7)	InChI=1S/C4H5N3O/c5-1-4(2-8-4)3(6)7/h2H2,(H3,6,7)/t4-/m1/s1
