14
gdb 44266	3.13442	1.51077	1.22446	2.0351	61.9	-0.2459	-0.0507	0.1952	977.8898	0.101523	-473.845973	-473.838759	-473.837814	-473.878153	26.75	
O	 0.1438068889	 0.0767077164	 0.3933680874	-0.335438
C	 0.0691596712	 1.2464577347	 0.1518034688	 0.386022
N	-0.9941240747	 2.1309403382	 0.0978934982	-0.321376
C	-0.1839683882	 3.3428474049	-0.0827304188	-0.132633
C	 1.0637680707	 2.4194462744	-0.1758415155	-0.036823
O	 1.9808331136	 2.7695197275	 0.8362546267	-0.249854
C	 1.2863566016	 3.4367464063	 1.8812420497	-0.202425
C	 0.0480829419	 4.0816232253	 1.2422794741	 0.385206
O	-0.6145446694	 4.970705796	 1.7033608898	-0.291094
H	-1.956287669	 2.0303346038	 0.3914314672	 0.264628
H	-0.4718632918	 3.9886365673	-0.9130456273	 0.114947
H	 1.5912925672	 2.33726403	-1.1257913399	 0.125213
H	 0.9712981281	 2.741884335	 2.6752584692	 0.142671
H	 1.9432906397	 4.1890326602	 2.3241476404	 0.150956
74.6548	121.7216	236.5422	250.2975	408.399	439.7887	500.2516	541.6165	631.1868	637.6376	735.911	786.1989	798.9475	883.1413	923.8824	976.2683	1003.9925	1028.4865	1116.6512	1149.4766	1157.946	1196.2142	1215.5791	1231.8406	1301.0039	1313.1656	1354.3033	1363.5771	1480.0877	1861.644	1905.5717	2995.0514	3106.5842	3111.0826	3129.348	3595.5907
O=C1NC2C1OCC2=O	O=C1N[C@@H]2[C@H]1OCC2=O	
InChI=1S/C5H5NO3/c7-2-1-9-4-3(2)6-5(4)8/h3-4H,1H2,(H,6,8)	InChI=1S/C5H5NO3/c7-2-1-9-4-3(2)6-5(4)8/h3-4H,1H2,(H,6,8)/t3-,4+/m0/s1
