18
gdb 36501	4.10298	1.00028	0.84982	2.0755	78.6	-0.2485	0.0244	0.273	1340.3665	0.14797	-401.931105	-401.922615	-401.921671	-401.96467	31.736	
C	-0.0424499758	-1.2426854556	-0.0118450168	-0.431915
C	-0.0256301221	-0.0425324	 0.0362042681	 0.303029
C	 0.0008571281	 1.414183055	 0.0731942011	-0.377809
C	 1.411577753	 2.0058180399	-0.0315425412	 0.141853
C	 1.4269040146	 3.5291722481	-0.1165607488	-0.24369
C	 2.8800223227	 4.0145210272	-0.0687712965	-0.1671
N	 3.6648058979	 3.3756122843	 0.9838613795	-0.264767
C	 3.2328062772	 2.2922750853	 1.4696275396	 0.132437
O	 2.1346530049	 1.5694739381	 1.1329288566	-0.234913
H	-0.0581118023	-2.3038157498	-0.0449172603	 0.19759
H	-0.598260551	 1.816343381	-0.7535767768	 0.13296
H	-0.4573370959	 1.7768042564	 1.0015446485	 0.139868
H	 1.9153188477	 1.5803322541	-0.9098207202	 0.10021
H	 0.9268866432	 3.8600042762	-1.0328729897	 0.105634
H	 0.8675176068	 3.9398035013	 0.7328603279	 0.113067
H	 3.3768386177	 3.8346655392	-1.0316621478	 0.113894
H	 2.9160793882	 5.0973392907	 0.0924079592	 0.114243
H	 3.7558270051	 1.7990442786	 2.2870011678	 0.125411
69.9367	90.9985	137.4241	220.6829	290.1556	342.3716	383.9218	436.116	505.267	544.8126	562.8342	620.9998	647.0602	793.2334	809.6115	881.7411	911.5979	951.1149	964.226	969.6908	1025.7785	1073.0658	1106.2323	1118.1185	1161.0583	1212.1602	1251.2379	1259.6222	1306.9907	1355.4519	1365.5572	1387.5222	1398.4379	1412.2706	1456.1919	1479.0143	1492.0378	1735.6939	2244.3101	3015.5867	3019.7596	3026.2876	3035.8548	3061.9139	3065.2445	3086.4684	3159.2059	3506.5896
C#CCC1CCN=CO1	C#CC[C@H]1CCN=CO1	
InChI=1S/C7H9NO/c1-2-3-7-4-5-8-6-9-7/h1,6-7H,3-5H2	InChI=1S/C7H9NO/c1-2-3-7-4-5-8-6-9-7/h1,6-7H,3-5H2/t7-/m0/s1
