19
gdb 48329	2.21842	1.34742	1.0565	2.5757	81.23	-0.2488	-0.0242	0.2246	1216.2581	0.156669	-385.856103	-385.846637	-385.845693	-385.890977	34.529	
O	-0.5566865298	 0.1392852068	-0.2853237281	-0.255189
C	-0.233392735	 1.2209335929	 0.1337686338	 0.112254
C	 1.1365937986	 1.8387175506	-0.0298953237	 0.247321
C	 1.5261089622	 2.6387681308	 1.2279854595	-0.442933
C	 1.6824069233	 1.7984829295	 2.4099798374	 0.299054
C	 1.7990144448	 1.0753718634	 3.3629848981	-0.429267
C	 2.2453492228	 0.9097275749	-0.5917189809	-0.26469
C	 2.5765065051	 1.9682805461	-1.6768944223	-0.207641
C	 1.2534938814	 2.7080157203	-1.3404445693	-0.275791
H	-0.9754207647	 1.8782536837	 0.6467124734	 0.072549
H	 2.4583082255	 3.1832505367	 1.0337255975	 0.134831
H	 0.761490774	 3.4053274187	 1.4172051822	 0.132233
H	 1.902249887	 0.4450801537	 4.2113669984	 0.200992
H	 3.0381934154	 0.6375336014	 0.1079096902	 0.1108
H	 1.8046035332	-0.0010830386	-1.0014112279	 0.130002
H	 3.4599092801	 2.5642167075	-1.4340117182	 0.10569
H	 2.6808466371	 1.6067157514	-2.7016766858	 0.107748
H	 0.4544277968	 2.4886156299	-2.0527308797	 0.117759
H	 1.3012875624	 3.7899159302	-1.1905379447	 0.104278
60.8111	79.2012	103.9092	125.7787	245.6375	279.3517	309.0726	335.949	354.2604	455.2265	611.4149	631.4234	647.3912	669.3182	739.7897	788.166	855.9689	886.4982	904.2408	936.8798	949.8297	972.6626	983.2834	1074.2173	1088.1323	1152.3624	1190.4945	1215.0808	1254.4244	1264.3323	1271.9882	1277.1869	1327.7111	1330.375	1425.1564	1466.7821	1474.3317	1484.6554	1504.5895	1826.3721	2238.0914	2847.6914	3011.4477	3050.6225	3057.4013	3066.8681	3076.601	3104.5959	3120.4548	3136.0874	3505.727
O=CC1(CC#C)CCC1	O=CC1(CC#C)CCC1	
InChI=1S/C8H10O/c1-2-4-8(7-9)5-3-6-8/h1,7H,3-6H2	InChI=1S/C8H10O/c1-2-4-8(7-9)5-3-6-8/h1,7H,3-6H2
