13
gdb 20413	4.88644	2.12599	1.52049	5.3767	59.56	-0.2365	-0.0297	0.2068	766.6952	0.098495	-394.735154	-394.729358	-394.728414	-394.765007	22.375	
C	 0.0081653234	 1.4363860161	-0.0759462666	-0.17218
C	 1.487442601	 1.9323218491	 0.0749510271	-0.343396
C	 2.2301047556	 0.6379275915	-0.0518217411	 0.333983
N	 3.4283655094	 0.1822677181	-0.2176824046	-0.196823
O	 3.287368423	-1.1909267928	-0.2151726131	-0.175233
N	 1.9439537377	-1.5825938002	-0.041430954	-0.241333
C	 1.3220577486	-0.4472617433	 0.0600452108	 0.388371
N	 0.0368526966	-0.0072908779	 0.2782315849	-0.393077
H	-0.6764223755	 1.9747809409	 0.583270087	 0.127658
H	-0.3282440174	 1.5801079801	-1.1113020474	 0.121159
H	 1.7476488757	 2.6785072145	-0.6777009386	 0.144306
H	 1.6521603696	 2.3786689289	 1.0613054682	 0.147073
H	-0.7346636475	-0.578261805	-0.0331946627	 0.25949
155.1638	261.1914	335.1206	469.5066	504.668	581.9165	651.7035	711.7698	741.6352	812.3345	822.6719	858.8891	882.254	935.6527	1031.3742	1051.5125	1073.9714	1183.6721	1200.6537	1249.5636	1295.4535	1329.6931	1410.5292	1461.4298	1480.8839	1520.8628	1612.8086	1697.9381	3016.0312	3056.8869	3099.1796	3120.5575	3616.9966
C1CC2=NON=C2N1	C1Cc2nonc2N1	
InChI=1S/C4H5N3O/c1-2-5-4-3(1)6-8-7-4/h1-2H2,(H,5,7)	InChI=1S/C4H5N3O/c1-2-5-4-3(1)6-8-7-4/h1-2H2,(H,5,7)
