21
gdb 41563	2.84582	1.69274	1.56797	0.1627	85.36	-0.2318	0.0257	0.2575	980.3364	0.186079	-349.938096	-349.931152	-349.930208	-349.9692	29.374	
C	 0.4321402064	 1.6670967905	-0.2489342581	-0.229485
C	 1.6529456146	 1.4394474091	 0.6939021203	-0.22266
C	 1.3349913354	-0.0751282014	 0.7305599766	-0.021742
C	 0.0270926856	 0.1686555263	-0.1015275375	-0.028857
C	 0.508674372	-0.8375612519	-1.1904784444	-0.012677
C	 0.7989570673	-0.3544640482	-2.6266562758	-0.285483
C	 2.2753538253	-0.0189061639	-2.5830775295	-0.060018
C	 2.854060887	-0.3442519957	-1.4246200556	-0.081111
C	 1.8842725222	-0.9540966703	-0.4508446711	-0.065565
H	-0.312728032	 2.3658982602	 0.139713061	 0.095099
H	 0.6909634857	 1.9817105205	-1.2626746079	 0.102305
H	 2.6313094262	 1.7244668263	 0.2988081444	 0.094593
H	 1.5266163535	 1.9150537992	 1.6703452317	 0.092677
H	 1.3319508798	-0.5667081573	 1.7049262274	 0.055119
H	-0.970124301	-0.00884273	 0.3050908281	 0.056679
H	-0.0907210816	-1.7501586421	-1.1724952295	 0.063855
H	 0.5948139842	-1.1338867415	-3.3731406364	 0.100484
H	 0.1825725057	 0.506910058	-2.9153441244	 0.103664
H	 2.7915525016	 0.4241776227	-3.4290835173	 0.087879
H	 3.9058026727	-0.1996851428	-1.1991392317	 0.088458
H	 2.1926829695	-1.9550529978	-0.1306025802	 0.066787
114.8323	190.553	252.7513	358.6505	435.9134	501.7213	601.7575	680.6489	712.6396	753.1769	757.929	774.0316	821.5336	854.7303	872.8865	901.1693	927.0772	947.9458	966.0488	974.4421	984.2823	1017.0989	1040.9421	1069.672	1087.6378	1109.7329	1128.7557	1139.5666	1178.5807	1198.4951	1208.6018	1231.6945	1248.7794	1261.5832	1273.3356	1286.9758	1299.2802	1316.5682	1327.8575	1333.8561	1381.0961	1472.2192	1486.1954	1493.4943	1671.1965	3011.6689	3036.8466	3039.0955	3053.4007	3061.4257	3074.1527	3082.2003	3094.2435	3097.3584	3116.2419	3169.6028	3195.1678
C1CC2C1C1CC=CC21	C1C[C@H]2[C@@H]1[C@H]1CC=C[C@@H]21	
InChI=1S/C9H12/c1-2-6-7(3-1)9-5-4-8(6)9/h1-2,6-9H,3-5H2	InChI=1S/C9H12/c1-2-6-7(3-1)9-5-4-8(6)9/h1-2,6-9H,3-5H2/t6-,7+,8-,9+/m1/s1
