25
gdb 121140	2.75144	0.95809	0.86739	0.8644	90.1	-0.2413	0.0866	0.3279	1540.8089	0.226622	-389.489298	-389.478488	-389.477544	-389.525217	40.122	
C	-0.5284159832	 1.2501726462	-0.1289081576	-0.385026
C	 0.2339174002	-0.0642416602	-0.1365487743	-0.036665
O	 0.2233865082	-0.5981644196	 1.1736328578	-0.254958
C	 0.8747699519	-1.8339941028	 1.2893652302	 0.146212
C	 2.426985089	-1.8870613627	 1.2740403051	-0.267839
C	 2.3470716062	-2.9008192499	 2.4477276311	-0.259126
C	 0.8736718097	-2.4518699222	 2.7201766077	 0.28469
C	 0.7939185731	-1.3821705386	 3.8133659946	-0.422925
C	-0.1457570009	-3.5599289745	 2.9666265908	-0.454276
H	-0.0599151546	 1.960907477	 0.5578843773	 0.125446
H	-0.540905919	 1.6911359642	-1.1302288282	 0.112755
H	-1.5611146097	 1.0924430718	 0.1951111674	 0.125121
H	-0.2309540242	-0.7780200698	-0.8381243568	 0.083731
H	 1.2695189116	 0.0935060279	-0.4788074347	 0.089329
H	 0.4580590523	-2.549105228	 0.5603576821	 0.053614
H	 2.9202562194	-2.2107119209	 0.3547923103	 0.092368
H	 2.8521285496	-0.9291155882	 1.5855558449	 0.107266
H	 2.4033590515	-3.9376121252	 2.1036370526	 0.095059
H	 3.0570455847	-2.7693322656	 3.2680913476	 0.096099
H	 1.5310006087	-0.5878395973	 3.6657668894	 0.112496
H	-0.193551535	-0.9120973183	 3.8278721984	 0.121737
H	 0.9752892057	-1.8345925385	 4.7948951848	 0.103262
H	 0.0296355127	-4.0500038369	 3.9314912339	 0.110259
H	-1.1664759212	-3.1603969894	 2.9786054609	 0.116764
H	-0.0946180368	-4.3290649586	 2.1882726346	 0.104608
61.4594	80.264	116.4219	141.6814	204.5727	231.9586	243.1739	267.5396	286.9919	334.9038	361.7375	370.6062	482.1884	535.9663	602.2456	748.6131	796.0147	820.859	871.6762	894.4931	919.8112	947.4122	964.4317	969.4762	1006.2253	1019.7669	1063.437	1119.3472	1146.0557	1169.537	1181.2369	1189.7976	1208.7735	1234.5307	1251.0186	1266.1208	1288.1814	1294.6487	1324.5271	1374.0746	1399.5363	1403.6065	1417.5714	1439.8829	1475.5034	1482.1083	1483.4574	1487.7466	1498.5617	1499.9752	1501.3283	1505.8755	1529.4545	2952.0048	2960.1461	2986.1334	3019.4298	3032.6193	3044.0559	3053.5214	3062.2642	3085.8851	3090.1496	3099.8077	3101.3965	3112.9501	3118.2284	3120.0376	3120.5334
CCOC1CCC1(C)C	CCO[C@H]1CCC1(C)C	
InChI=1S/C8H16O/c1-4-9-7-5-6-8(7,2)3/h7H,4-6H2,1-3H3	InChI=1S/C8H16O/c1-4-9-7-5-6-8(7,2)3/h7H,4-6H2,1-3H3/t7-/m0/s1
