17
gdb 20866	6.78113	1.03438	0.95895	4.9685	70.32	-0.249	0.0032	0.2521	1225.127	0.143766	-360.053525	-360.045652	-360.044707	-360.086937	27.949	
C	-0.1082008574	 1.5871964998	-0.0200580252	-0.382048
C	-0.1093195506	 0.0579198785	-0.063107778	-0.159155
C	 0.8123475934	-0.5022382198	-1.1653828948	-0.313249
C	 0.8514105287	-1.9950462954	-1.2168560119	 0.34262
C	 1.8042904226	-2.9250216219	-0.8653447833	-0.153304
N	 1.3208793539	-4.1788915512	-1.0920025004	-0.185332
N	 0.1140319532	-4.0886726659	-1.567480994	-0.118592
N	-0.1768068691	-2.7727505507	-1.6443626066	-0.232325
H	 0.8972951091	 1.9765815534	 0.1734480326	 0.120708
H	-0.4500822452	 2.0126119956	-0.9701663701	 0.117095
H	-0.767538855	 1.9605896712	 0.7688663704	 0.120573
H	 0.2097698398	-0.3472896273	 0.9039881331	 0.114261
H	-1.1315167073	-0.3078444557	-0.2227965643	 0.096222
H	 0.498575399	-0.1010481597	-2.1385108095	 0.113413
H	 1.8332546555	-0.1407725585	-1.0027155665	 0.123833
H	 2.7950458598	-2.7617689177	-0.4722651605	 0.119101
H	-1.0767904904	-2.4907359048	-1.9991676409	 0.276179
39.1718	85.9059	118.3594	239.1485	306.6887	317.9215	373.605	578.3284	677.9646	729.5187	741.4017	756.6122	846.5915	870.8995	898.3419	995.3724	1042.2365	1059.962	1072.1638	1092.4264	1111.1088	1139.0916	1230.0128	1257.2965	1303.0081	1322.703	1339.6973	1382.0154	1386.4673	1413.8803	1439.5579	1482.2416	1492.0146	1498.3818	1509.7789	1608.5937	3017.9034	3027.3481	3032.5571	3059.6262	3079.7415	3100.7055	3109.2129	3266.7452	3653.8207
CCCC1=CN=NN1	CCCc1cnn[nH]1	
InChI=1S/C5H9N3/c1-2-3-5-4-6-8-7-5/h4H,2-3H2,1H3,(H,6,7,8)	InChI=1S/C5H9N3/c1-2-3-5-4-6-8-7-5/h4H,2-3H2,1H3,(H,6,7,8)
