18
gdb 106130	2.86382	1.63503	1.45191	1.6971	76.41	-0.22	0.0085	0.2284	980.8536	0.148742	-401.889546	-401.882058	-401.881114	-401.921418	29.674	
C	 0.0784328706	 1.3396372615	-0.1871624352	-0.260457
O	-0.0188285851	-0.0319501612	 0.1747533274	-0.284511
C	-1.2871538137	-0.5266013183	 0.0893119225	 0.429906
C	-1.7452493025	-1.9233603602	-0.0250073341	-0.120773
N	-2.6026977257	-1.8390774872	 1.1260735697	-0.29142
C	-2.5018802818	-0.3147689197	 1.0882280982	-0.129066
C	-3.6225779631	 0.2097373154	 0.2386602893	-0.127783
C	-3.3986297226	-0.1426445543	-1.0428036382	-0.068361
C	-2.0913241016	-0.8058499393	-1.1579140731	-0.194606
H	 1.131683058	 1.6145270576	-0.1044747279	 0.129926
H	-0.2639985372	 1.5043435128	-1.2169595294	 0.119143
H	-0.5137554998	 1.9744009357	 0.4856823729	 0.118881
H	-1.2454408168	-2.8351448527	-0.3272713791	 0.110475
H	-3.5581654157	-2.165210112	 0.9672516638	 0.210348
H	-2.3328265512	 0.1224315296	 2.0716013261	 0.078803
H	-4.5204174503	 0.6662357602	 0.6360281333	 0.095064
H	-4.091647979	-0.0254561685	-1.8672792052	 0.097492
H	-1.5779927526	-0.9682090095	-2.0979183411	 0.086941
101.3118	152.616	168.9882	355.2553	358.9478	398.9384	461.7289	567.7402	583.9441	644.08	747.8592	753.3196	776.209	818.6794	860.4253	908.8222	927.2712	961.4863	979.6809	1000.0328	1028.7752	1056.1185	1079.9887	1114.7735	1133.1189	1136.1654	1178.9513	1190.4369	1216.2809	1242.8936	1268.6181	1300.7631	1360.4594	1372.1205	1437.083	1486.0178	1501.3323	1507.0145	1607.2431	3002.6802	3060.3985	3119.8554	3129.7763	3189.5491	3196.9024	3201.9077	3220.0397	3423.7364
COC12C3NC1C=CC23	CO[C@@]12[C@H]3N[C@@H]1C=C[C@@H]23	
InChI=1S/C7H9NO/c1-9-7-4-2-3-5(7)8-6(4)7/h2-6,8H,1H3	InChI=1S/C7H9NO/c1-9-7-4-2-3-5(7)8-6(4)7/h2-6,8H,1H3/t4-,5-,6+,7-/m1/s1
