23
gdb 91340	2.85518	1.27673	1.06358	0.2731	91.99	-0.2238	0.0311	0.2549	1268.7528	0.20688	-351.174162	-351.165401	-351.164457	-351.207297	34.677	
C	-1.125497931	 1.0342871853	-0.0100451566	-0.407977
C	-0.1075035275	-0.0941212048	-0.072358887	 0.05101
C	 1.1813955929	 0.1066880313	-0.9205518432	-0.247523
C	 2.0342462995	-0.5323909726	 0.2143503069	-0.002416
C	 3.1631124384	 0.3299793364	 0.803080693	-0.318796
C	 2.4540642445	 1.1765959332	 1.8451296888	 0.328453
C	 3.1609397895	 2.2891391057	 2.5540056706	-0.489017
C	 1.1919741659	 0.7742047035	 2.0318899164	-0.175844
C	 0.7999333966	-0.3936027998	 1.1692556291	-0.077319
H	-0.6550744309	 1.9705213383	 0.3087765507	 0.1147
H	-1.5820250331	 1.206183619	-0.9915567417	 0.109165
H	-1.9337418533	 0.808868017	 0.6954566795	 0.108298
H	-0.6072990482	-1.0214806203	-0.3745743527	 0.064359
H	 1.2077196475	-0.3855393938	-1.8962111809	 0.091299
H	 1.4220607746	 1.1651807526	-1.0648046047	 0.093446
H	 2.3391296572	-1.5563771839	-0.0086082192	 0.060272
H	 3.9581427352	-0.2710347733	 1.2682732383	 0.096004
H	 3.6566255809	 0.9437696003	 0.0363844052	 0.09579
H	 3.5117306876	 3.0511256396	 1.8459201514	 0.122784
H	 2.5151442268	 2.7791397002	 3.2878595441	 0.120631
H	 4.0535092262	 1.9213152932	 3.0769568535	 0.122651
H	 0.5127672033	 1.227957311	 2.7477454942	 0.079674
H	 0.4924523776	-1.2616133282	 1.7640519943	 0.060357
89.4554	125.1959	181.4778	230.1628	263.6418	307.039	351.4964	369.6245	439.9927	507.9498	573.3915	621.5229	723.4628	794.8231	838.3681	862.5303	869.6475	886.1309	910.6089	929.2506	966.5018	981.7269	1021.3486	1033.7984	1044.1404	1092.168	1118.8361	1128.5831	1141.3533	1183.6116	1203.5984	1228.625	1248.8018	1265.4197	1269.8295	1287.1604	1314.5065	1337.0737	1353.3874	1377.1493	1408.9351	1412.5255	1478.4949	1481.8405	1486.1663	1490.1504	1495.4269	1501.2356	1710.0564	2996.3035	3014.0024	3022.2077	3023.7424	3024.4625	3038.6676	3045.3646	3057.9795	3084.398	3085.2805	3095.6479	3104.3118	3107.9216	3171.2313
CC1CC2CC(C)=CC12	C[C@H]1C[C@H]2CC(=C[C@@H]12)C	
InChI=1S/C9H14/c1-6-3-8-5-7(2)9(8)4-6/h4,7-9H,3,5H2,1-2H3	InChI=1S/C9H14/c1-6-3-8-5-7(2)9(8)4-6/h4,7-9H,3,5H2,1-2H3/t7-,8+,9-/m0/s1
