17
gdb 82274	3.14021	1.40055	1.06847	2.8298	75.96	-0.2534	-0.0701	0.1833	1105.0831	0.135549	-421.829324	-421.821393	-421.820449	-421.861793	29.984	
C	-0.0889087475	 1.5830553499	-0.0626987079	-0.406112
C	 0.0105280307	 0.0499342793	-0.0101339948	-0.129521
C	 0.7909308075	-0.5432886482	-1.1837855388	 0.030121
O	 2.1464644385	-0.0986729945	-1.2593773272	-0.248951
C	 1.8825762466	-1.3870789879	-0.65802538	-0.001885
C	 1.7865643111	-1.3102018696	 0.826016728	-0.178101
C	 0.7812910988	-0.4932177917	 1.1892657941	 0.22239
C	 0.452751997	-0.1957470669	 2.5864466648	 0.085473
O	-0.4624027261	 0.513308168	 2.9456376079	-0.27359
H	 0.910061512	 2.0208456151	-0.1358802096	 0.132866
H	-0.6663092062	 1.8982775251	-0.9373896574	 0.11403
H	-0.5799123109	 1.960561668	 0.8354166471	 0.150177
H	-1.0043927209	-0.3691650985	-0.0003333625	 0.098513
H	 0.3087368525	-0.7260217729	-2.1405680222	 0.102308
H	 2.312318769	-2.2387693163	-1.1748601935	 0.107169
H	 2.4488778293	-1.8310734602	 1.5085373079	 0.120508
H	 1.1126578387	-0.6994660488	 3.3277683743	 0.074605
97.3492	175.1422	189.8837	238.5403	254.8698	275.1678	430.713	475.7374	506.8592	621.2647	699.9144	725.0947	805.5689	829.4961	851.491	878.8887	914.089	980.9802	1015.4306	1027.1371	1042.3069	1096.3051	1112.8448	1119.6304	1200.7004	1251.1377	1278.9672	1306.6033	1322.7294	1365.6126	1389.6967	1404.9395	1427.8617	1496.8849	1509.992	1656.9954	1779.4202	2880.9871	3025.284	3047.638	3118.221	3147.6274	3148.8638	3173.4188	3200.7753
CC1C2OC2C=C1C=O	C[C@H]1[C@H]2O[C@H]2C=C1C=O	
InChI=1S/C7H8O2/c1-4-5(3-8)2-6-7(4)9-6/h2-4,6-7H,1H3	InChI=1S/C7H8O2/c1-4-5(3-8)2-6-7(4)9-6/h2-4,6-7H,1H3/t4-,6+,7-/m1/s1
