16
gdb 55370	3.25209	1.37239	1.19356	3.3934	64.42	-0.2433	0.0321	0.2754	1046.3196	0.124688	-475.03574	-475.027792	-475.026848	-475.068844	29.554	
N	 0.890937793	-0.0482177125	 0.7283215499	-0.509096
C	-0.1586825422	 0.1407316465	-0.1013857906	 0.376144
O	-0.3206174874	 1.1024852783	-0.8277507653	-0.378728
C	-1.2097341994	-0.9757338203	-0.0689025876	 0.010298
O	-0.7631316843	-2.1072905311	 0.6795650762	-0.28457
C	-1.8619215286	-2.7093043164	 1.3677144058	-0.113974
C	-2.8984036223	-1.6171631167	 1.5036556052	 0.027306
O	-2.3482735256	-0.403644308	 2.0261320355	-0.248379
C	-2.4953209996	-0.5329781643	 0.6078273357	 0.011178
H	 1.5869395399	 0.6732941167	 0.8113587785	 0.262944
H	 0.909441978	-0.8570527541	 1.325799707	 0.273905
H	-1.4275249182	-1.2437986619	-1.1128601367	 0.107479
H	-2.2770202001	-3.5516376051	 0.7936016721	 0.106855
H	-1.4915434949	-3.0850636774	 2.3265603133	 0.123896
H	-3.9282767371	-1.8428624155	 1.7645243444	 0.110662
H	-3.1703102412	 0.1581155218	 0.1152555564	 0.124079
50.4557	109.9428	175.283	277.604	299.0309	358.4531	397.6336	462.6884	541.8912	616.7535	683.537	729.4174	797.6343	842.7418	882.7255	890.0225	954.2355	958.4919	982.465	1042.8452	1069.0045	1093.6989	1110.2121	1119.724	1228.2334	1256.331	1292.9586	1307.999	1319.4574	1369.7348	1380.9835	1438.6431	1505.2518	1593.5576	1805.962	2995.9989	3010.65	3081.1102	3162.4784	3188.7318	3602.9141	3744.2967
NC(=O)C1OCC2OC12	NC(=O)[C@H]1OC[C@H]2O[C@@H]12	
InChI=1S/C5H7NO3/c6-5(7)4-3-2(9-3)1-8-4/h2-4H,1H2,(H2,6,7)	InChI=1S/C5H7NO3/c6-5(7)4-3-2(9-3)1-8-4/h2-4H,1H2,(H2,6,7)/t2-,3-,4+/m1/s1
