22
gdb 9960	2.44288	1.61764	1.43649	1.2446	78.27	-0.2373	0.0613	0.2986	1068.1393	0.197945	-350.19774	-350.187676	-350.186731	-350.23196	37.091	
C	 0.2102740537	 1.4432601765	-0.2705563039	-0.381214
C	-0.1463006616	-0.0013381937	 0.1100851917	-0.243059
C	 0.664494385	-0.5575135307	 1.2724539109	 0.293725
C	 0.5192812947	 0.1917890413	 2.5858411856	-0.461524
C	 0.8793485172	-2.0656114542	 1.3820326289	-0.085101
C	 0.2976996348	-3.0759848771	 0.4148636737	-0.414766
C	 2.024148205	-1.1706925084	 0.9819159927	 0.041455
O	 2.4745254251	-1.2986815048	-0.3389419525	-0.418351
H	 1.2708405471	 1.5370353782	-0.5320805781	 0.097535
H	-0.3724854997	 1.7709344805	-1.1370847043	 0.113032
H	 0.0114692213	 2.1463271788	 0.5437109221	 0.119477
H	-1.2136572668	-0.0523185591	 0.3643548267	 0.092099
H	-0.0087315652	-0.6355797917	-0.7683431652	 0.108416
H	-0.522304741	 0.1844914018	 2.9303963813	 0.112732
H	 1.1269926916	-0.2678221318	 3.3718509557	 0.11136
H	 0.8335372223	 1.2379047395	 2.5008589326	 0.112998
H	 0.9287709467	-2.4288798684	 2.4062365064	 0.076967
H	 0.4748121564	-2.7947654831	-0.6240983738	 0.136845
H	 0.7650491825	-4.0547001736	 0.5678665698	 0.114962
H	-0.7808293618	-3.1974871551	 0.5639240163	 0.110508
H	 2.8196621086	-1.0039660299	 1.7099822517	 0.073945
H	 2.7678723241	-0.432539525	-0.6393587482	 0.287958
73.0424	126.2254	167.1999	190.3335	199.2025	221.4066	274.5459	287.7373	295.0497	303.3653	368.5963	486.413	523.189	594.1651	688.1187	770.7751	789.066	848.9002	927.3532	972.6677	1009.6084	1027.4517	1032.8033	1071.6919	1085.1637	1127.0391	1138.2535	1173.2487	1181.593	1250.1217	1286.7878	1313.4899	1329.3737	1369.0838	1380.4535	1407.6292	1415.4849	1418.9399	1462.1164	1478.4152	1491.278	1494.0909	1500.0112	1502.901	1507.3323	1510.9173	3016.5224	3020.185	3030.5048	3035.0715	3077.5553	3079.4481	3087.8824	3088.865	3094.5146	3097.4421	3114.083	3121.3737	3141.3586	3810.3151
CCC1(C)C(C)C1O	CC[C@@]1(C)[C@@H](C)[C@H]1O	
InChI=1S/C7H14O/c1-4-7(3)5(2)6(7)8/h5-6,8H,4H2,1-3H3	InChI=1S/C7H14O/c1-4-7(3)5(2)6(7)8/h5-6,8H,4H2,1-3H3/t5-,6+,7-/m0/s1
