17
gdb 20975	4.60546	1.62781	1.22991	1.3883	71.68	-0.1834	0.0355	0.2189	975.9484	0.143754	-360.053276	-360.045254	-360.044309	-360.085775	29.174	
C	 0.0165213879	 1.3994962197	 0.0804356128	-0.329348
N	-0.0112085455	-0.0085843948	-0.2615607465	-0.145732
C	 1.1877775562	-0.7611957483	 0.0653282296	-0.321809
C	-1.2205098805	-0.6713295263	-0.1112267793	 0.445801
N	-1.2622468734	-1.998637865	 0.0307138821	-0.337837
N	-2.5871355271	-2.2879719357	 0.0791837529	-0.192402
C	-3.3709481488	-1.1934510823	-0.0052775611	-0.01522
C	-2.5292855167	-0.1100722681	-0.1281105649	-0.317656
H	 0.9736986948	 1.8233521924	-0.2358884391	 0.12044
H	-0.7732496377	 1.9369704839	-0.4511468807	 0.12803
H	-0.1036605954	 1.5917152556	 1.1606045631	 0.105557
H	 1.3086333013	-0.9283199286	 1.1485337215	 0.104135
H	 1.1475666353	-1.7376444084	-0.4189382112	 0.149817
H	 2.0612737581	-0.2148166714	-0.3021347149	 0.109131
H	-2.8673869662	-3.2455937962	 0.1922004271	 0.270391
H	-4.4473774912	-1.259250897	 0.0262577486	 0.128758
H	-2.8191215412	 0.9224767108	-0.2183460999	 0.097944
63.9763	153.5229	180.6507	188.1592	260.7656	358.4731	390.8832	407.565	502.3669	621.1707	643.7996	722.3706	751.153	815.9679	933.4229	941.2304	1010.8867	1066.6749	1082.7482	1122.2967	1129.284	1174.2233	1203.3009	1237.0223	1287.9975	1346.1157	1402.4191	1445.1337	1465.5801	1481.179	1490.4722	1496.1369	1498.8178	1510.405	1543.5024	1603.7092	2956.3228	2970.8758	3073.8032	3078.1089	3114.5543	3140.5158	3255.476	3282.9438	3694.8476
CN(C)C1=NNC=C1	CN(C)c1n[nH]cc1	
InChI=1S/C5H9N3/c1-8(2)5-3-4-6-7-5/h3-4H,1-2H3,(H,6,7)	InChI=1S/C5H9N3/c1-8(2)5-3-4-6-7-5/h3-4H,1-2H3,(H,6,7)
