21
gdb 110947	2.65851	1.02255	0.88897	0.9614	78.59	-0.2472	0.0703	0.3174	1386.4147	0.182393	-424.176056	-424.166598	-424.165654	-424.210808	35.212	
O	-0.1982328824	 1.5928858574	-0.3301939254	-0.420934
C	 0.0110886686	 0.2480399293	 0.0838741398	-0.097898
C	-1.2860602036	-0.5312402056	 0.0873386857	-0.015971
C	-1.8702125758	-1.2578028724	-1.095372181	-0.087563
C	-0.8032353337	-2.0445516212	-1.8763970294	-0.260808
C	-0.5181844961	-2.8946033748	-0.5951365716	 0.055701
C	 0.8980390162	-3.1121930612	-0.0939528497	-0.107513
O	 1.5415629819	-3.9807482759	-1.0185009741	-0.423084
C	-1.5049568642	-2.0205629763	 0.1921368615	-0.137756
H	-0.6152929772	 1.5598816859	-1.197755549	 0.281439
H	 0.7724812537	-0.236531485	-0.5409651375	 0.08926
H	 0.4179000733	 0.3131656962	 1.09910147	 0.108269
H	-2.0516971877	 0.0074779205	 0.6447827302	 0.094616
H	-2.8591517665	-1.025959194	-1.4727435379	 0.086197
H	-1.2153122309	-2.641803729	-2.6910921864	 0.108588
H	 0.0359922407	-1.4653867152	-2.2747402339	 0.097458
H	-0.9593972806	-3.8868724909	-0.7340682413	 0.088112
H	 1.4414394663	-2.1606655299	-0.0063523217	 0.087748
H	 0.8582896711	-3.557679782	 0.9144960091	 0.083657
H	 2.4547111342	-4.0950936194	-0.7399598501	 0.286589
H	-2.1746168775	-2.4099496965	 0.9511395829	 0.083891
71.0937	73.0434	133.624	168.5817	238.2193	257.1914	273.8405	333.3292	406.0907	423.3456	485.089	562.263	703.8102	758.1317	804.2696	844.135	884.0919	915.8139	960.211	985.5927	1004.5596	1038.6896	1045.9451	1056.7109	1080.2057	1082.3109	1103.7876	1128.3655	1170.3283	1195.1699	1220.6382	1237.5749	1252.7071	1268.0695	1278.1994	1306.0851	1334.1409	1363.6152	1377.7676	1414.2757	1453.184	1462.8218	1488.1148	1513.1423	1518.5423	2960.9577	3006.3438	3022.1545	3053.1106	3056.6129	3066.9349	3116.2186	3120.1456	3164.3777	3180.8704	3806.8505	3829.7673
OCC1C2CC(CO)C12	OC[C@H]1[C@H]2C[C@@H](CO)[C@@H]12	
InChI=1S/C7H12O2/c8-2-4-1-5-6(3-9)7(4)5/h4-9H,1-3H2	InChI=1S/C7H12O2/c8-2-4-1-5-6(3-9)7(4)5/h4-9H,1-3H2/t4-,5+,6-,7+/m0/s1
