22
gdb 91325	2.80197	1.35671	1.18194	1.937	83.13	-0.2104	0.0814	0.2918	1186.3538	0.192402	-404.31019	-404.30086	-404.299916	-404.343642	35.889	
C	-0.0698282718	 1.5734262967	 0.1462943322	-0.328503
N	 0.0921633745	 0.138060489	 0.1317389022	-0.06379
C	-1.1260614251	-0.7041533643	 0.2193720202	-0.197484
C	-0.4396126072	-1.5727161734	 1.2920633743	 0.10711
O	 0.4500815588	-2.5751675042	 0.7788880122	-0.350542
C	 1.6289828318	-1.7090629219	 0.9583899529	 0.418568
C	 2.4359482617	-2.1976685907	 2.1554751525	-0.425776
C	 2.4471829044	-1.6223803919	-0.3144418085	-0.432406
C	 0.6902915026	-0.5198405862	 1.3119542167	-0.10543
H	 0.9111500195	 2.0589866368	 0.1794303431	 0.121041
H	-0.5694444069	 1.8972760734	-0.7730496386	 0.123199
H	-0.6655764649	 1.9458238723	 1.0024152227	 0.087792
H	-1.9941943472	-0.1636360944	 0.6296542173	 0.086094
H	-1.4123779632	-1.2024693854	-0.7125518042	 0.109262
H	-1.0313726907	-1.9192338274	 2.1417194896	 0.079726
H	 2.808679521	-3.2098246664	 1.9704097104	 0.124711
H	 3.2934947279	-1.5414773317	 2.3405792927	 0.111248
H	 1.820924786	-2.2240574035	 3.060683817	 0.113709
H	 1.8494517255	-1.1839803586	-1.1150642455	 0.133281
H	 3.3383937847	-1.0040662933	-0.1609778518	 0.106824
H	 2.7748045633	-2.623074289	-0.614208333	 0.118678
H	 0.9567886155	 0.128066554	 2.1514427656	 0.062689
101.4332	156.0222	194.6063	207.7923	215.5676	246.9211	294.6499	331.931	378.9962	398.782	409.4101	517.6531	606.2867	725.0698	806.2015	836.3024	855.9651	909.7735	934.8077	958.5993	976.7786	987.8338	1005.9043	1021.4207	1063.4279	1133.6846	1167.6038	1169.4312	1179.9735	1188.7243	1201.8138	1249.3851	1253.4085	1288.0764	1305.6105	1334.4396	1350.5497	1396.8015	1410.886	1452.345	1473.3712	1478.8392	1482.7141	1493.0599	1500.1796	1502.3941	1506.8524	2915.4951	2976.0377	3030.152	3038.8103	3053.6657	3067.3458	3071.2438	3086.6457	3097.2298	3099.5408	3104.4722	3110.3609	3141.2813
CN1CC2OC(C)(C)C12	CN1C[C@H]2OC(C)(C)[C@@H]12	
InChI=1S/C7H13NO/c1-7(2)6-5(9-7)4-8(6)3/h5-6H,4H2,1-3H3	InChI=1S/C7H13NO/c1-7(2)6-5(9-7)4-8(6)3/h5-6H,4H2,1-3H3/t5-,6+/m1/s1
