20
gdb 7498	3.85267	1.26959	1.166	1.3231	71.6	-0.243	0.0777	0.3208	1134.0414	0.175193	-386.11591	-386.106727	-386.105783	-386.150145	32.632	
C	 0.6906611508	 1.4424375151	 0.0092025003	-0.222681
O	 0.9226421513	 0.0606574544	 0.143455778	-0.238763
C	-0.0600413666	-0.5925675071	 0.9166187199	-0.093613
C	 0.2843627569	-2.0780506173	 0.9946586689	 0.408109
C	 0.2681910596	-2.7436716234	-0.3697856124	-0.438453
C	 1.4829882582	-2.4057942152	 1.9203227004	-0.316655
C	 0.4167213465	-2.9907513507	 2.8650863134	-0.070316
O	-0.640623899	-2.7179760891	 1.9201294618	-0.327767
H	 0.6807961507	 1.9514140384	 0.9860594761	 0.104356
H	 1.5022526534	 1.8544704716	-0.5955416361	 0.126821
H	-0.2678131221	 1.6484052727	-0.49276777	 0.106152
H	-0.1015816157	-0.1718890939	 1.9348012678	 0.084308
H	-1.0619055675	-0.4724950429	 0.4702680404	 0.090902
H	 0.9772348366	-2.2469055784	-1.0378487632	 0.134195
H	 0.5327955262	-3.8014154675	-0.2869011146	 0.11201
H	-0.7313960197	-2.6739305402	-0.8119858826	 0.119249
H	 2.1832731658	-3.1343756651	 1.5086815291	 0.10774
H	 2.0390390159	-1.5421988128	 2.287370025	 0.112687
H	 0.4988753561	-4.0615406549	 3.0857461655	 0.102297
H	 0.2715087528	-2.4491033539	 3.8082835124	 0.099422
67.3741	93.1978	97.2888	172.6784	215.4168	234.2153	321.6324	330.77	362.8569	433.7842	476.8375	697.7851	784.9195	864.4149	881.7523	959.1173	971.7916	982.8046	1002.867	1014.4941	1028.5045	1133.8984	1161.8715	1163.0011	1177.3218	1207.0994	1212.8092	1229.3369	1249.4009	1286.0594	1314.305	1354.6611	1398.641	1411.7252	1480.0448	1483.188	1485.607	1490.1381	1494.8165	1505.07	1524.0232	1533.1876	2955.4478	2973.2297	2991.1125	3014.5615	3015.8955	3038.0735	3053.5826	3083.0327	3108.6582	3113.3236	3125.7841	3137.6205
COCC1(C)CCO1	COC[C@@]1(C)CCO1	
InChI=1S/C6H12O2/c1-6(5-7-2)3-4-8-6/h3-5H2,1-2H3	InChI=1S/C6H12O2/c1-6(5-7-2)3-4-8-6/h3-5H2,1-2H3/t6-/m1/s1
