19
gdb 52658	3.37546	0.82812	0.69106	4.2382	85.51	-0.2495	0.0208	0.2703	1626.4397	0.157179	-382.060016	-382.049022	-382.048078	-382.09801	37.802	
C	-0.0704016036	 1.4861391289	-0.0077108558	-0.501029
C	-0.0188805739	 0.03110611	-0.0028823367	 0.100677
C	 0.0178211368	-1.1720648835	 0.0256153317	 0.077261
C	 0.0455420247	-2.634578271	 0.0185477252	-0.159691
N	-1.3087747573	-3.1589743314	 0.1864344148	-0.510143
C	 0.8004775794	-3.1364403617	-1.2707303676	-0.139479
C	 2.2657258888	-2.6708164323	-1.328453717	-0.398616
C	 0.7151453363	-4.5976304413	-1.3338462164	 0.259185
N	 0.6355581483	-5.7511964052	-1.3534987164	-0.329627
H	 0.7867828924	 1.9142146224	 0.523127547	 0.15336
H	-0.0622206692	 1.8833358606	-1.0284678692	 0.150202
H	-0.9798786647	 1.8484057974	 0.4834552082	 0.156755
H	 0.6326809028	-2.9847110534	 0.8787883853	 0.123145
H	-1.905473108	-2.8333585098	-0.5683414247	 0.231265
H	-1.2937208843	-4.1746537754	 0.148889446	 0.247128
H	 0.2579199075	-2.7384004766	-2.1372083368	 0.125896
H	 2.3012137137	-1.5799527318	-1.3013676645	 0.141318
H	 2.8293120895	-3.0598621932	-0.47525828	 0.136352
H	 2.7508225609	-3.0187193827	-2.2434793831	 0.13604
14.4249	51.71	83.0248	148.2661	158.9337	211.6062	247.1162	255.0999	285.8863	317.578	342.2523	405.0997	475.2614	529.2511	552.9673	590.5231	774.6573	815.0215	867.7299	910.9304	1042.8572	1051.7607	1054.0157	1059.5713	1092.5361	1118.7788	1189.4953	1207.4103	1262.4471	1322.1935	1347.6013	1407.8052	1413.2184	1415.0802	1476.8762	1477.7269	1495.5135	1496.8883	1652.4441	2349.7216	2372.7159	3011.7345	3030.5886	3041.4606	3051.9068	3092.2569	3094.1843	3124.6649	3140.9817	3486.5925	3575.0505
CC#CC(N)C(C)C#N	CC#C[C@@H](N)[C@@H](C)C#N	
InChI=1S/C7H10N2/c1-3-4-7(9)6(2)5-8/h6-7H,9H2,1-2H3	InChI=1S/C7H10N2/c1-3-4-7(9)6(2)5-8/h6-7H,9H2,1-2H3/t6-,7+/m0/s1
