17
gdb 28291	5.1167	1.22941	1.0035	4.2433	82.82	-0.2124	-0.0095	0.2029	1158.109	0.138824	-380.922686	-380.915441	-380.914497	-380.954233	28.213	
C	-0.0206863911	 1.4855398043	 0.0422154595	-0.486473
C	 0.0005993653	-0.0057567984	-0.0138336427	 0.251084
C	-0.0317515023	-0.7816957217	-1.1067532942	-0.11595
N	 0.0051427344	-2.1401434787	-0.7365210667	-0.012887
C	 0.0031702926	-3.3926065366	-1.2736140729	-0.011955
N	 0.0564448265	-4.3081839672	-0.3275111236	-0.282364
C	 0.0947081246	-3.6203138859	 0.8702033549	-0.218051
C	 0.0636252609	-2.2709089572	 0.6392723169	 0.31346
C	 0.0657779314	-0.889534314	 1.2317714117	-0.471352
H	 0.8753637492	 1.8801037557	 0.537649436	 0.132234
H	-0.0712171361	 1.9219565424	-0.9589769608	 0.129215
H	-0.8823205974	 1.8521088231	 0.6142335359	 0.132184
H	-0.0790151177	-0.5009121371	-2.1486120775	 0.134265
H	-0.0374402419	-3.5765116755	-2.3361677766	 0.128649
H	 0.1417217881	-4.1449522253	 1.8120003148	 0.107003
H	 0.9658738153	-0.6778092174	 1.8240592948	 0.135469
H	-0.7892617017	-0.7058822105	 1.8958408103	 0.13547
121.0067	176.2687	255.3676	264.2008	293.5515	454.1648	472.5	529.3435	665.093	676.5379	739.4107	783.3763	816.0144	834.1357	835.4115	877.9923	937.5359	955.6101	1015.0792	1060.0722	1124.7787	1158.8937	1158.9117	1182.2255	1229.0388	1254.2104	1291.5704	1316.7773	1378.0713	1412.8077	1436.0946	1460.712	1477.0756	1491.7285	1496.8829	1593.4145	1700.4409	3016.8031	3021.1677	3041.7007	3064.0658	3111.9183	3246.9831	3251.214	3256.7303
CC1=CN2C=NC=C2C1	CC1=Cn2cncc2C1	
InChI=1S/C7H8N2/c1-6-2-7-3-8-5-9(7)4-6/h3-5H,2H2,1H3	InChI=1S/C7H8N2/c1-6-2-7-3-8-5-9(7)4-6/h3-5H,2H2,1H3
