16
gdb 43204	2.5689	1.60883	1.22192	3.4427	74.82	-0.2431	-0.0118	0.2313	1035.7191	0.124133	-400.6998	-400.691988	-400.691044	-400.732363	29.549	
O	 0.0839386244	 0.0542686715	 0.4769997492	-0.309525
C	-0.0138034125	 1.2035116104	 0.1748409773	 0.382022
C	-1.1892361635	 2.2468176073	 0.1116445012	-0.352025
C	-2.1258520053	 2.2541269842	 1.2078113778	 0.336383
C	-2.8801152613	 2.262749097	 2.1441614546	-0.43794
C	-0.029347404	 3.289557067	 0.0679575434	 0.015897
C	 0.6845773639	 3.6978588733	 1.3828370196	-0.257087
C	 1.788812229	 2.6535490031	 1.0340798266	-0.182861
N	 0.9670530098	 2.1773929803	-0.1334069894	-0.144238
H	-1.7082255497	 2.1986676823	-0.8522151056	 0.137443
H	-3.5574305363	 2.2611976726	 2.9621640208	 0.204252
H	-0.090476663	 4.0434954113	-0.7180091132	 0.094445
H	 1.0104636027	 4.7376806677	 1.4345939762	 0.116717
H	 0.1082103673	 3.4590653549	 2.2796790169	 0.133634
H	 2.7334263268	 3.0862142749	 0.698141498	 0.124469
H	 1.9897879518	 1.8665162922	 1.7641373568	 0.138412
83.8483	125.2534	163.9567	219.4851	325.1681	373.8063	486.6561	548.571	623.0172	628.3496	647.3768	682.4495	735.7861	797.8857	849.4178	867.7767	892.7304	949.8492	993.9765	1011.1395	1066.0221	1092.8879	1112.9795	1167.1939	1190.1124	1217.6959	1233.993	1260.5711	1300.5978	1307.8782	1341.378	1482.5036	1508.9328	1897.7455	2236.4361	3052.3002	3070.8853	3076.3203	3100.826	3122.0986	3140.0158	3502.2368
O=C1C(C#C)C2CCN12	O=C1[C@@H](C#C)[C@H]2CCN12	
InChI=1S/C7H7NO/c1-2-5-6-3-4-8(6)7(5)9/h1,5-6H,3-4H2	InChI=1S/C7H7NO/c1-2-5-6-3-4-8(6)7(5)9/h1,5-6H,3-4H2/t5-,6+/m0/s1
