21
gdb 58440	2.48426	1.32552	1.25062	0.5426	77.67	-0.2256	0.0629	0.2886	1161.5431	0.180576	-424.177829	-424.16846	-424.167516	-424.211576	36.013	
C	 0.6937274505	-0.0479666924	-1.2464864184	-0.393035
C	 0.0055918425	 0.1049447515	 0.1167520174	-0.019598
C	 0.0507026511	 1.5604662169	 0.6099798133	-0.418265
C	-1.4291690907	-0.3958200763	 0.0600985017	 0.381951
O	-2.2974878602	 0.3490736113	-0.762550555	-0.480187
C	-1.835924123	-1.8544538904	-0.0143101372	-0.180317
C	-0.9894492981	-2.6996370413	 0.9271673077	-0.109028
O	-1.2498134185	-1.7977917982	 2.0412741659	-0.2857
C	-2.1400351976	-1.031478452	 1.2261667588	 0.00464
H	 1.7216292121	 0.3273392087	-1.2128932724	 0.105892
H	 0.7262877826	-1.0966485248	-1.5587848479	 0.111735
H	 0.1503994314	 0.5113662629	-2.0146468091	 0.124756
H	 0.5312408523	-0.507136351	 0.8570207604	 0.094541
H	-0.4277806054	 2.2380865926	-0.1069173423	 0.109094
H	-0.4499627357	 1.669757278	 1.5781241056	 0.116938
H	 1.084682323	 1.8974769067	 0.7296276465	 0.116817
H	-2.4545361977	 1.1972291451	-0.3334134723	 0.287529
H	-2.492417188	-2.2120087492	-0.795326589	 0.107374
H	-1.4220488554	-3.685781464	 1.1294468606	 0.113573
H	 0.0809143841	-2.8039556799	 0.7154541582	 0.108302
H	-3.0666553793	-0.6733293742	 1.6623862875	 0.102987
64.8867	164.6587	179.617	222.0251	246.0015	272.8647	283.5827	326.296	359.4823	385.8744	471.5459	518.2037	572.8805	673.5384	776.4049	821.6387	890.3487	915.1493	927.4194	944.3695	962.0033	975.9481	1000.5231	1017.1362	1051.8413	1064.3652	1098.2268	1134.1783	1158.6621	1170.5353	1191.2556	1230.0419	1282.3593	1308.7555	1317.153	1347.296	1363.717	1390.8664	1414.6041	1440.6969	1487.4818	1495.2677	1505.0215	1514.7446	1517.2722	3024.5855	3025.8658	3034.4653	3059.469	3073.0372	3092.1158	3101.3352	3104.31	3110.4917	3166.8529	3213.1236	3801.4625
CC(C)C1(O)C2COC12	CC(C)[C@@]1(O)[C@H]2CO[C@@H]12	
InChI=1S/C7H12O2/c1-4(2)7(8)5-3-9-6(5)7/h4-6,8H,3H2,1-2H3	InChI=1S/C7H12O2/c1-4(2)7(8)5-3-9-6(5)7/h4-6,8H,3H2,1-2H3/t5-,6+,7+/m0/s1
