17
gdb 41392	2.70251	1.98946	1.35084	1.9489	73.92	-0.2413	-0.0042	0.2371	946.9647	0.13722	-421.767082	-421.760221	-421.759276	-421.798266	27.322	
C	-0.1258916061	 1.4092200025	 0.0747872697	-0.167223
O	 1.3414838956	 1.4507585182	-0.006588996	-0.329273
C	 1.3690829175	 0.1677052111	-0.6727939997	 0.354815
C	 1.9372477748	 0.0436658293	-2.0886670058	-0.144244
O	 2.3927974355	-1.2969032259	-1.8089114614	-0.290766
C	 2.0785796422	-1.1939021185	-0.3995558666	 0.025385
C	 0.9427759337	-2.1636531184	 0.0402389621	-0.269103
C	-0.2953456441	-1.2786974022	 0.1768022258	-0.187588
C	-0.0463208534	-0.056183651	-0.2804585091	 0.117429
H	-0.4998407855	 1.6586357414	 1.0722787255	 0.125172
H	-0.569452432	 2.0808107245	-0.6693578598	 0.116179
H	 1.2377422103	 0.0868903377	-2.9315578329	 0.106752
H	 2.7739288836	 0.7325703848	-2.2661897814	 0.109703
H	 2.9780425809	-1.2443717899	 0.2217705732	 0.088273
H	 0.8494294113	-2.9642647675	-0.7023963626	 0.129639
H	 1.1543968599	-2.6454399434	 1.0028554815	 0.110673
H	-1.1788684441	-1.6048815726	 0.7138831374	 0.104177
119.9204	231.6456	240.4808	278.3358	398.8654	454.0857	520.6836	620.5868	677.8918	784.2032	808.8537	825.0646	853.6103	912.938	931.1102	946.5936	987.0426	999.3143	1010.6494	1027.8748	1047.0381	1101.9893	1122.1047	1134.5201	1153.9164	1173.446	1207.2149	1237.2981	1298.1334	1307.3815	1323.9061	1346.9861	1362.2023	1467.2	1510.7724	1512.9966	1738.197	3010.7378	3030.0027	3030.8087	3062.1525	3065.0711	3071.8687	3089.9402	3197.0366
C1OC23COC2CC=C13	C1O[C@@]23CO[C@@H]2C[CH][C]13	
InChI=1S/C7H8O2/c1-2-6-7(4-8-6)5(1)3-9-7/h1,6H,2-4H2	InChI=1S/C7H8O2/c1-2-6-7(4-8-6)5(1)3-9-7/h1,6H,2-4H2/t6-,7-/m1/s1
