19
gdb 121714	4.51583	0.54623	0.51941	3.4224	74.63	-0.2507	-0.0396	0.2111	2075.4774	0.155077	-460.183546	-460.172817	-460.171873	-460.221872	35.959	
O	 0.1023097195	 1.3385758206	 0.3502148388	-0.418217
C	 0.0438712387	-0.0764743038	 0.2885168129	-0.078016
C	-1.3820772522	-0.4650946426	-0.079070023	-0.162985
C	-1.5645681976	-1.9765995074	-0.1839431815	-0.315055
C	-2.9770727927	-2.4026232757	-0.5387590708	 0.36201
O	-3.8820678315	-1.6201870273	-0.7125031682	-0.300018
C	-3.2301211987	-3.910147645	-0.6412120536	-0.372602
C	-4.3320162426	-4.3302953799	 0.3223652987	 0.162408
O	-4.2554712934	-5.2794060956	 1.0556005095	-0.230861
H	 0.9979380702	 1.5944466867	 0.5887400583	 0.28715
H	 0.7458275981	-0.4734631179	-0.4644268292	 0.082664
H	 0.3177528997	-0.531025948	 1.2555625161	 0.08439
H	-2.0692713153	-0.0580045152	 0.6690278237	 0.124939
H	-1.6490181175	 0.0098143896	-1.0283879572	 0.123556
H	-0.8889319921	-2.4134858477	-0.9345508375	 0.127056
H	-1.2983732326	-2.4825387951	 0.7567268536	 0.130925
H	-3.6040299312	-4.0988156156	-1.6562967551	 0.156906
H	-2.3400028676	-4.5175860569	-0.4675785412	 0.12612
H	-5.2252727812	-3.672679823	 0.2934400257	 0.109632
21.369	58.2629	75.4108	101.8591	117.2836	143.3984	223.7428	264.1349	297.0084	309.8644	460.4154	480.668	525.6373	638.6435	750.7945	786.8759	855.3272	877.4809	966.4286	1012.1515	1037.4037	1065.8529	1086.0201	1097.4401	1114.201	1190.4807	1213.9059	1237.2089	1275.4662	1296.797	1310.6676	1316.0507	1391.4122	1407.0033	1443.9158	1449.2047	1467.2839	1493.0751	1527.24	1797.8045	1840.6935	2928.1565	2951.297	2975.5581	3002.3271	3027.7236	3036.6304	3061.4828	3104.1366	3125.9178	3831.9913
OCCCC(=O)CC=O	OCCCC(=O)CC=O	
InChI=1S/C6H10O3/c7-4-1-2-6(9)3-5-8/h5,7H,1-4H2	InChI=1S/C6H10O3/c7-4-1-2-6(9)3-5-8/h5,7H,1-4H2
