19
gdb 112682	2.45557	1.35237	1.14083	3.5243	71.55	-0.2629	0.012	0.2749	1173.0881	0.15902	-460.215274	-460.206258	-460.205314	-460.249359	32.761	
C	-0.4752627961	 1.101399998	-0.230540103	-0.248936
O	-0.2543352286	-0.2976623425	-0.3467299779	-0.232531
C	 0.8759117628	-0.6351210532	-1.0836716392	 0.206762
C	 1.0138077853	-2.1608015102	-1.1183538006	-0.268206
C	 0.2472691471	-2.5535644891	-2.3905086523	-0.137349
C	-1.2129230456	-2.9745469334	-2.1547389628	-0.401676
C	 0.2950865252	-1.2752551889	-3.2280495611	 0.434805
O	 0.0056290163	-1.1340202034	-4.3790100402	-0.341756
O	 0.7332819907	-0.2324178559	-2.455985005	-0.230423
H	 0.3886650042	 1.5984382967	 0.2340617507	 0.112583
H	-0.6649727315	 1.5591594819	-1.2071693886	 0.139763
H	-1.3493484472	 1.2299269263	 0.4101544338	 0.133789
H	 1.7583337726	-0.1006792777	-0.7081803277	 0.084432
H	 2.070766036	-2.4276937483	-1.1978917624	 0.11635
H	 0.6111805985	-2.6003337012	-0.2047690305	 0.125636
H	 0.7588711584	-3.3369965061	-2.9552392596	 0.107936
H	-1.7401765899	-2.2189013396	-1.566418618	 0.140632
H	-1.7299983444	-3.1010460056	-3.1094598557	 0.139459
H	-1.2508655738	-3.9223979779	-1.6099635099	 0.118731
84.3806	87.5637	132.1777	196.9591	229.43	250.4652	271.932	355.6004	410.8521	487.3165	537.0587	671.3063	724.4373	771.4656	808.3819	838.2714	916.2731	966.9526	983.7201	1021.2386	1058.9804	1095.7833	1121.3774	1152.6307	1165.6343	1181.1243	1214.6519	1245.3599	1280.6011	1331.3178	1341.2982	1381.1975	1403.9957	1405.9427	1479.4896	1483.4863	1486.0139	1498.3756	1506.6483	1512.0829	1885.605	3001.1896	3025.2039	3045.1763	3070.7112	3079.4061	3082.9485	3119.3045	3130.5416	3133.9422	3136.0219
COC1CC(C)C(=O)O1	CO[C@H]1C[C@@H](C)C(=O)O1	
InChI=1S/C6H10O3/c1-4-3-5(8-2)9-6(4)7/h4-5H,3H2,1-2H3	InChI=1S/C6H10O3/c1-4-3-5(8-2)9-6(4)7/h4-5H,3H2,1-2H3/t4-,5-/m1/s1
