13
gdb 129110	5.0771	1.32306	1.05645	1.2365	65.63	-0.2397	-0.0333	0.2064	1029.9505	0.091123	-452.729251	-452.72287	-452.721925	-452.760223	24.58	
N	-0.0669731473	 1.2368706408	 0.0076225769	-0.510298
C	-0.0276911291	-0.0153324276	 0.000729696	 0.391871
C	-1.2584197204	-0.9527280982	 0.0026323794	-0.454121
C	-0.552741453	-2.2615839084	-0.0083006127	 0.327082
C	 0.7810025954	-2.0805079046	-0.0148325825	 0.229327
O	 1.1661239757	-0.76187776	-0.0099646325	-0.260304
C	 1.3293403676	-3.3789844481	-0.0248640284	-0.107977
N	 0.356394576	-4.2737785514	-0.0240499691	-0.133401
O	-0.8557503123	-3.5588684202	-0.0135292886	-0.215823
H	 0.8700243524	 1.6419281495	 0.0045205329	 0.241361
H	-1.8718343053	-0.7690439034	 0.8901942452	 0.170974
H	-1.8817396487	-0.7596317851	-0.8759854873	 0.170975
H	 2.3532848389	-3.7199249332	-0.0324373593	 0.150334
105.7659	206.0241	336.9115	338.9898	523.1813	533.4306	545.6958	626.5559	679.5544	738.2085	792.2639	832.7398	868.2854	890.0251	893.3107	968.7386	970.0189	988.1915	1147.0057	1147.2798	1193.7238	1234.4126	1269.7443	1378.7404	1424.1647	1457.4696	1522.4166	1675.1876	1804.1496	3059.0002	3094.8595	3262.6386	3489.6837
N=C1CC2=C(O1)C=NO2	[NH][C]1Cc2c(O1)cno2	
InChI=1S/C5H4N2O2/c6-5-1-3-4(8-5)2-7-9-3/h2,6H,1H2	InChI=1S/C5H4N2O2/c6-5-1-3-4(8-5)2-7-9-3/h2,6H,1H2
