14
gdb 61369	3.28192	0.92205	0.80365	4.2007	65.19	-0.2941	-0.0981	0.196	1355.4991	0.097549	-473.84073	-473.831397	-473.830453	-473.876868	31.312	
O	 0.745546803	 1.3804462804	-0.6107003561	-0.427806
C	 0.0718140507	 0.2643893405	-0.1131327284	 0.054832
C	 0.1837577248	-0.9301965887	-1.0956452078	-0.333214
C	-0.4389199225	-0.5333616101	-2.421354878	 0.315775
O	-1.6252411781	-0.5429895498	-2.6292505049	-0.265008
C	 0.5037733183	-0.1022194198	-3.4697666995	 0.243557
N	 1.2478989447	 0.2041111345	-4.3000206255	-0.301649
C	 0.6168268884	-0.1337650187	 1.2471502523	 0.131685
O	 1.5267019143	 0.4720075567	 1.7551520434	-0.244137
H	 1.4242874399	 1.6025408495	 0.0471376171	 0.303544
H	-1.0027534572	 0.4825426037	 0.0141103357	 0.125129
H	 1.2352991256	-1.2015272834	-1.2222379593	 0.142825
H	-0.3802643991	-1.7852491076	-0.7096533983	 0.143223
H	 0.1378369472	-1.0033688472	 1.7398379993	 0.111245
25.3684	51.197	100.1993	161.2382	176.7112	280.6	298.0194	337.8321	392.1948	438.1997	479.0879	621.5452	661.2379	745.2842	809.0956	849.5123	909.873	979.5543	1048.1669	1099.0635	1173.6738	1245.8879	1255.0527	1307.0959	1348.4206	1399.5259	1432.5004	1461.3635	1797.2449	1819.2277	2339.792	2940.0306	2970.8259	3056.3549	3121.2091	3687.0743
OC(CC(=O)C#N)C=O	O[C@@H](CC(=O)C#N)C=O	
InChI=1S/C5H5NO3/c6-2-4(8)1-5(9)3-7/h3,5,9H,1H2	InChI=1S/C5H5NO3/c6-2-4(8)1-5(9)3-7/h3,5,9H,1H2/t5-/m0/s1
