16
gdb 52801	1.93702	1.29846	0.85759	3.9241	79.34	-0.2636	-0.0071	0.2565	1363.3754	0.120761	-400.718029	-400.708101	-400.707157	-400.754756	33.925	
C	 0.0365226224	 1.4794739643	-0.0028930659	-0.506408
C	 0.0249013753	 0.0257200611	-0.0160423847	 0.169085
C	-0.0038262051	-1.1778220452	-0.0165982536	 0.014127
C	-0.0055759372	-2.6176022066	-0.0430426075	 0.189125
C	 1.215979695	-3.2816597377	-0.6428268925	-0.475139
O	-0.539470196	-3.2693894298	 1.1279888901	-0.254792
C	-1.3055525517	-3.3511940511	-0.0682727079	-0.162199
C	-2.5712769978	-2.6510357577	-0.0929534783	 0.314743
N	-3.5954167032	-2.1182797948	-0.1438907934	-0.328351
H	 0.7572392009	 1.8751191407	-0.7263204908	 0.155212
H	-0.9504803531	 1.8811665918	-0.2546749435	 0.165146
H	 0.311672441	 1.8598453344	 0.9866146449	 0.159974
H	 2.106264989	-2.9970061857	-0.0753567874	 0.147438
H	 1.1150314523	-4.3691688482	-0.6131472817	 0.134374
H	 1.354198902	-2.9595770217	-1.6786191942	 0.142167
H	-1.333039434	-4.333292504	-0.5386102235	 0.1355
15.9752	64.0425	112.2917	153.9578	174.6986	202.7451	305.6189	313.2266	342.3216	371.5184	463.9554	537.78	577.7865	610.0314	623.1038	770.9295	882.8578	973.8574	1026.4719	1049.2206	1051.1287	1056.5369	1078.9052	1105.1598	1265.2111	1336.8557	1407.0456	1410.3376	1413.1309	1473.0303	1474.9095	1477.441	1492.929	2362.8511	2373.0461	3032.8278	3048.6689	3096.655	3099.4019	3122.1536	3124.2089	3133.1614
CC#CC1(C)OC1C#N	CC#C[C@@]1(C)O[C@H]1C#N	
InChI=1S/C7H7NO/c1-3-4-7(2)6(5-8)9-7/h6H,1-2H3	InChI=1S/C7H7NO/c1-3-4-7(2)6(5-8)9-7/h6H,1-2H3/t6-,7+/m0/s1
