17
gdb 7800	3.20592	1.86942	1.25555	3.7843	65.41	-0.2361	0.0278	0.2639	958.7999	0.1436	-401.038644	-401.031047	-401.030103	-401.070582	28.464	
C	-0.0764415451	 1.53922324	-0.0048525541	-0.405375
C	 0.0227900861	 0.0146136669	-0.0184439629	 0.044597
C	 0.7383009632	-0.5058091834	-1.2646107765	-0.0783
O	 0.9353383139	-1.9011878451	-1.1776077396	-0.244589
C	 1.8407966832	-2.2350389291	-0.1431449284	-0.190009
C	 1.5801173833	-1.5474457309	 1.1973456565	 0.374293
O	 2.1175428282	-1.9334122595	 2.2179376095	-0.373167
N	 0.755671991	-0.4619619624	 1.1518954214	-0.321113
H	 0.9180050302	 1.9955035807	-0.0344700255	 0.130342
H	-0.65126583	 1.8943709443	-0.8656321529	 0.127266
H	-0.5849456573	 1.8892251642	 0.8995336935	 0.123171
H	-0.9926362218	-0.4098600752	-0.0163119298	 0.093993
H	 0.1273779679	-0.3239210204	-2.1527226579	 0.116834
H	 1.7007228578	 0.0196432283	-1.3890571024	 0.093296
H	 1.7763085963	-3.3133651831	 0.0151337003	 0.144235
H	 2.8785106811	-1.9995974028	-0.4328318725	 0.120596
H	 0.558180562	-0.0456766025	 2.0518837812	 0.24393
103.3499	117.3624	232.1406	281.6997	297.7179	433.3611	450.6793	458.9018	508.146	526.7725	633.0469	658.3835	843.4725	886.8984	959.9557	967.9602	1010.4329	1024.3557	1098.0066	1139.7763	1158.5438	1202.0543	1242.0827	1309.0455	1339.8903	1348.6627	1365.9767	1396.4077	1408.6174	1416.3145	1460.3334	1474.391	1492.2888	1498.8867	1499.6268	1796.6873	2962.0683	2977.5997	2988.4612	3036.1156	3097.1405	3105.3444	3116.1643	3117.4351	3590.5724
CC1COCC(=O)N1	C[C@H]1COCC(=O)N1	
InChI=1S/C5H9NO2/c1-4-2-8-3-5(7)6-4/h4H,2-3H2,1H3,(H,6,7)	InChI=1S/C5H9NO2/c1-4-2-8-3-5(7)6-4/h4H,2-3H2,1H3,(H,6,7)/t4-/m0/s1
