16
gdb 129804	3.16033	1.65019	1.10592	3.156	71.93	-0.1884	0.0344	0.2228	1047.6837	0.127765	-434.06526	-434.057591	-434.056647	-434.097917	28.113	
N	 0.0665639293	 1.4632256251	 0.0541856643	-0.62166
C	 0.0014754158	 0.0504179104	 0.0249976835	-0.021219
C	-1.0799504594	-0.7871229583	-0.1354412385	 0.439677
O	-2.403907619	-0.7111980092	-0.4262854996	-0.294355
C	-2.9145734446	-2.0589366997	-0.2467354574	-0.107407
C	-1.6879583991	-3.0126992947	-0.3112067904	-0.192032
N	-0.6539236763	-2.0584715202	 0.0158029001	 0.006702
N	 0.6778299996	-2.1544609842	 0.2129762105	-0.314703
C	 1.0628509958	-0.8752270544	 0.2468442746	-0.018178
H	 0.6888768487	 1.8254344424	-0.6604418255	 0.242502
H	-0.8470035119	 1.8730762411	-0.0991151791	 0.242806
H	-3.3986569117	-2.1156535462	 0.7342803436	 0.129618
H	-3.6522379836	-2.2460313364	-1.0277653315	 0.132748
H	-1.7561718497	-3.8223899987	 0.4190657113	 0.138305
H	-1.5372847542	-3.4442471154	-1.3082858796	 0.130119
H	 2.0995020203	-0.6332365415	 0.4347852039	 0.107077
78.8482	115.8628	154.2413	241.7329	261.9824	351.5001	519.5351	609.8315	637.7147	646.2943	677.4299	774.4537	809.5541	825.0495	867.0251	871.7085	948.4054	993.9006	1081.1	1101.3119	1138.0667	1196.5701	1219.2413	1245.2592	1260.5554	1312.383	1351.8433	1375.6942	1399.9551	1442.6758	1502.9096	1524.0182	1551.7448	1651.2665	1690.291	3029.381	3048.1478	3100.428	3132.268	3236.9915	3508.4299	3596.883
NC1=C2OCCN2N=C1	Nc1c2OCCn2nc1	
InChI=1S/C5H7N3O/c6-4-3-7-8-1-2-9-5(4)8/h3H,1-2,6H2	InChI=1S/C5H7N3O/c6-4-3-7-8-1-2-9-5(4)8/h3H,1-2,6H2
