18
gdb 32901	6.03409	0.76203	0.6852	1.0199	75.82	-0.2258	0.0119	0.2377	1619.4577	0.14711	-439.126001	-439.116659	-439.115714	-439.161845	32.597	
C	-0.1237173573	 1.399550777	 0.6905189251	-0.494665
C	-0.0819237087	 0.0393295347	 0.0999290805	 0.323056
C	-0.9585587871	-0.7468287341	-0.5680084414	-0.200651
N	-0.3527518935	-1.9584250146	-0.8877703091	-0.313808
C	 0.8458078072	-1.8581046493	-0.4083830173	 0.395667
C	 1.9530012133	-2.8524836428	-0.4495101393	-0.308944
C	 1.5515279391	-4.1359983749	-1.1673666898	-0.070841
O	 2.6844065857	-4.9913880868	-1.1371027686	-0.422792
O	 1.0903097109	-0.6705911144	 0.2090008938	-0.215542
H	 0.6246842442	 2.0589706043	 0.2367540268	 0.141451
H	-1.1100494246	 1.8405015838	 0.5294170746	 0.140377
H	 0.0693496346	 1.3766360401	 1.7689544879	 0.141456
H	-1.9792598327	-0.5317006448	-0.8424896079	 0.117149
H	 2.8272979936	-2.4163791515	-0.9480653277	 0.134255
H	 2.2757581413	-3.0933764972	 0.5707589849	 0.134264
H	 0.6851912489	-4.5862836293	-0.6629406465	 0.105834
H	 1.2419586597	-3.903124635	-2.1958022351	 0.105809
H	 2.4515675352	-5.8087562251	-1.586281941	 0.287927
17.7409	84.3991	126.4568	151.0428	196.4197	252.7847	283.5987	303.8406	355.2031	442.3087	646.0207	668.1062	687.9382	777.8971	806.0561	844.9481	972.1134	980.9968	1034.1164	1039.6197	1067.7118	1074.8434	1093.6892	1150.7321	1201.0103	1213.3613	1238.6571	1256.6459	1301.6371	1310.6944	1390.6999	1419.5844	1467.621	1472.867	1482.2867	1492.2014	1524.8255	1614.9956	1652.1712	2999.6244	3028.5809	3032.0535	3035.4332	3069.7198	3083.5172	3128.9872	3261.4062	3836.7545
CC1=CN=C(CCO)O1	Cc1cnc(CCO)o1	
InChI=1S/C6H9NO2/c1-5-4-7-6(9-5)2-3-8/h4,8H,2-3H2,1H3	InChI=1S/C6H9NO2/c1-5-4-7-6(9-5)2-3-8/h4,8H,2-3H2,1H3
