18
gdb 35211	3.43623	1.17975	1.01609	1.6888	83.8	-0.2379	0.0239	0.2618	1201.5686	0.14755	-364.762639	-364.754418	-364.753474	-364.796104	31.754	
C	-0.1768881539	-1.2073796128	 0.117904151	-0.437303
C	-0.0877521572	-0.0079594845	 0.1109918095	 0.383278
C	 0.0202123516	 1.4228884319	 0.0556475168	-0.313643
N	 0.6850568842	 2.1118123066	 1.1921102372	-0.362749
C	 1.3357399406	 2.1253410336	-0.1176414617	 0.340587
C	 2.6564686052	 1.3591950861	-0.2681851292	-0.32475
C	 3.4195675926	 2.1848712806	-1.2714836248	-0.05904
C	 2.7612519376	 3.2809322066	-1.644982265	-0.065013
C	 1.4242795704	 3.4109461917	-0.9591792067	-0.34738
H	-0.2580682818	-2.2658231527	 0.140321091	 0.197071
H	-0.8399090673	 1.9218438805	-0.3878444884	 0.104567
H	 0.2124226078	 2.9978652044	 1.3615563419	 0.230128
H	 3.1736787987	 1.2892212048	 0.6967622237	 0.12148
H	 2.4919101208	 0.3288663431	-0.6062996799	 0.122653
H	 4.4021638861	 1.8973211453	-1.6287577927	 0.094629
H	 3.1220071373	 4.0213853442	-2.3498777219	 0.094059
H	 0.5936956105	 3.5024285025	-1.6708812762	 0.111992
H	 1.3844663968	 4.306280588	-0.3208698043	 0.109433
34.1727	124.8497	142.9879	297.921	357.7124	378.2043	383.3496	479.281	552.1943	582.8978	611.2493	658.2099	696.6644	771.9155	786.433	817.465	893.1388	943.2499	955.8217	964.7028	983.1157	984.2709	1030.8232	1041.717	1075.9426	1132.7031	1168.0171	1198.4186	1203.793	1260.0085	1283.028	1299.0603	1354.356	1381.4722	1437.5934	1478.5483	1484.7755	1691.9099	2237.0793	2994.8515	3028.2961	3033.4983	3056.4057	3116.1084	3184.3813	3209.1513	3481.2075	3504.1877
C#CC1NC11CC=CC1	C#C[C@H]1N[C@]21CC=CC2	
InChI=1S/C8H9N/c1-2-7-8(9-7)5-3-4-6-8/h1,3-4,7,9H,5-6H2	InChI=1S/C8H9N/c1-2-7-8(9-7)5-3-4-6-8/h1,3-4,7,9H,5-6H2/t7-/m1/s1
