19
gdb 30643	2.68428	1.32188	0.92491	4.7424	77.49	-0.2088	0.0412	0.2501	1255.0825	0.16102	-419.247563	-419.23877	-419.237826	-419.28122	32.849	
C	-0.7960208884	 1.8348940375	-0.7608461556	-0.40491
C	-0.1866283359	 0.5407735635	-0.2064264688	-0.111429
C	-1.2798017231	-0.3426089773	 0.4097162985	-0.079783
O	-0.6537373927	-1.4142629018	 1.1196425145	-0.427744
C	 0.6025683392	-0.1869587784	-1.2567790499	 0.321771
C	 1.0131527542	 0.143375375	-2.5266685821	-0.186587
N	 1.7488658952	-0.8746521199	-3.0908285485	-0.264883
C	 1.7858290925	-1.8159780374	-2.175161056	 0.004612
N	 1.117440007	-1.4511215078	-1.0473554491	-0.296241
H	-0.01704353	 2.490450453	-1.1579157915	 0.132598
H	-1.5017381575	 1.6241455923	-1.5709753974	 0.126144
H	-1.3274083719	 2.380486448	 0.0245242291	 0.112965
H	 0.4844196263	 0.8062959576	 0.6243976723	 0.099059
H	-1.8894444235	 0.2615747223	 1.0973823619	 0.093228
H	-1.9373832944	-0.7273130649	-0.3837076883	 0.100271
H	-1.3393772162	-2.0088952291	 1.4373813996	 0.293636
H	 0.8234040151	 1.0575514702	-3.0680461963	 0.098865
H	 2.2769755025	-2.773148384	-2.2706630701	 0.121692
H	 0.9252714316	-1.9912432389	-0.2175557126	 0.266736
63.3997	158.4223	164.6934	195.2607	239.0269	277.7913	289.7393	362.4317	428.191	518.7511	604.1558	642.316	698.9497	708.511	810.7642	846.3969	885.1608	936.2375	957.7903	1004.9497	1044.6983	1089.3218	1102.2111	1114.6435	1134.7149	1151.5585	1231.4246	1253.0782	1258.4621	1283.6574	1324.6617	1357.4227	1391.3997	1407.6296	1422.9621	1453.7812	1493.6489	1501.8433	1509.5173	1518.3099	1605.0071	2983.5553	2990.4999	3027.173	3041.4031	3109.6031	3121.0353	3245.723	3249.9179	3633.6765	3834.1567
CC(CO)C1=CN=CN1	C[C@@H](CO)c1cnc[nH]1	
InChI=1S/C6H10N2O/c1-5(3-9)6-2-7-4-8-6/h2,4-5,9H,3H2,1H3,(H,7,8)	InChI=1S/C6H10N2O/c1-5(3-9)6-2-7-4-8-6/h2,4-5,9H,3H2,1H3,(H,7,8)/t5-/m0/s1
