20
gdb 10176	2.89261	1.18992	0.88488	1.0148	78.24	-0.2578	0.0556	0.3134	1343.7674	0.174014	-348.965791	-348.95571	-348.954766	-349.001002	35.426	
C	 0.8269996079	-0.2042637835	-1.2962991396	-0.389976
C	-0.041469798	-0.098652686	-0.0423173621	-0.168383
C	 0.6484205276	-0.6392333569	 1.2315690908	-0.165804
C	-0.1797760222	-0.3459639206	 2.4940079993	-0.067499
O	-0.2792447991	 1.0524220485	 2.6418524319	-0.232629
C	-1.0468862145	 1.4332879622	 3.7584345146	-0.228455
C	 0.9182474601	-2.0726864338	 1.1441626287	 0.32195
C	 1.1096912048	-3.2581568837	 1.0802682145	-0.474539
H	 1.1017640423	-1.2436140152	-1.5001437914	 0.128251
H	 0.2977608946	 0.1841568468	-2.1717578784	 0.111714
H	 1.7530674676	 0.3711045608	-1.1857266636	 0.113571
H	-0.3079514184	 0.9443934352	 0.150845168	 0.116802
H	-0.9792872931	-0.6485343012	-0.1887414672	 0.098611
H	 1.6040609671	-0.1095666792	 1.3522099504	 0.1114
H	-1.1793346352	-0.8029361477	 2.3999637232	 0.0939
H	 0.3063903993	-0.7963077602	 3.3738682998	 0.096893
H	-2.0824022365	 1.064684761	 3.6873100038	 0.105923
H	-0.6139032143	 1.0573260835	 4.6988496717	 0.105888
H	-1.0616023543	 2.5254267039	 3.7882699463	 0.128222
H	 1.2941388842	-4.3021349039	 1.0207692794	 0.19416
76.7691	90.1288	104.9104	126.6487	173.5548	226.0786	246.5103	272.001	303.4191	345.1186	463.1429	527.0997	575.7029	626.1764	644.0028	768.0742	833.4525	944.612	977.1599	1005.5098	1037.7954	1083.5469	1128.8386	1154.2644	1163.6772	1188.1815	1225.903	1253.3962	1276.4756	1315.2953	1347.0512	1367.5649	1412.5657	1417.3564	1480.4616	1485.2604	1490.6657	1498.5651	1502.8222	1508.7487	1526.5637	2233.1117	2959.834	2973.9964	2995.5344	3013.7756	3016.3859	3033.4057	3037.6476	3087.888	3102.4026	3114.9465	3115.0916	3504.1438
CCC(COC)C#C	CC[C@@H](COC)C#C	
InChI=1S/C7H12O/c1-4-7(5-2)6-8-3/h1,7H,5-6H2,2-3H3	InChI=1S/C7H12O/c1-4-7(5-2)6-8-3/h1,7H,5-6H2,2-3H3/t7-/m0/s1
