20
gdb 56278	4.78789	0.71486	0.65125	6.2763	76.91	-0.2477	0.0292	0.2769	1703.8984	0.17128	-440.300846	-440.291667	-440.290722	-440.335942	33.658	
O	-1.5315796652	 1.4012378358	-1.8515215265	-0.374246
C	-0.6456513455	 1.6344085243	-0.8721606909	 0.405929
O	 0.5388890159	 1.6673031146	-1.0774231859	-0.331099
C	-1.2481700442	 1.8861763214	 0.516924173	-0.351838
C	-2.5020909954	 1.0674495793	 0.8452360846	-0.155447
N	-3.5956838263	 1.3984065275	-0.0850579966	-0.313416
H	-3.8764752033	 2.3658019338	 0.0528653276	 0.228276
H	-2.4432685968	 1.3969141256	-1.4612202908	 0.304537
C	-4.7495843484	 0.5331241558	 0.0167691815	 0.065406
C	-5.7467044511	 0.6519389315	 1.1478284189	-0.275539
C	-6.1158334969	 1.0799306101	-0.2578274407	-0.292818
H	-0.4621373287	 1.6914121347	 1.2488454417	 0.138685
H	-1.4813041211	 2.958232008	 0.5861682127	 0.124451
H	-2.2898536275	-0.0014880725	 0.7282990491	 0.127868
H	-2.7903933284	 1.2204860432	 1.8955757022	 0.106029
H	-4.5360708229	-0.4685862035	-0.3454336757	 0.110758
H	-6.1892581997	-0.252138708	 1.5510655267	 0.122998
H	-5.5869448897	 1.4363937037	 1.8806211153	 0.113624
H	-6.2060749136	 2.1444267387	-0.451661002	 0.117813
H	-6.8088508411	 0.4712880761	-0.8269579643	 0.12803
53.8491	67.3273	97.8123	178.3537	194.9166	242.5001	339.4781	425.0813	438.1614	509.3295	577.6697	698.2398	753.1701	770.298	815.1289	825.0273	864.0326	894.0429	945.2487	977.671	988.3492	993.6813	1052.761	1071.5337	1078.4158	1092.9807	1131.0358	1168.3677	1192.9151	1234.7697	1240.8977	1274.0678	1288.8991	1349.7168	1361.2001	1407.6294	1459.0687	1465.0265	1484.6605	1493.9899	1511.7624	1513.2143	1859.5193	2995.0132	3021.0018	3065.4733	3119.7748	3129.5292	3134.2644	3148.8061	3210.2703	3224.8342	3252.4516	3500.1307
[O-]C(=O)CC[NH2+]C1CC1	OC(=O)CCNC1CC1	
InChI=1S/C6H11NO2/c8-6(9)3-4-7-5-1-2-5/h5,7H,1-4H2,(H,8,9)	InChI=1S/C6H11NO2/c8-6(9)3-4-7-5-1-2-5/h5,7H,1-4H2,(H,8,9)
