20
gdb 62775	2.78416	1.37199	1.14383	1.5554	85.4	-0.2272	0.0318	0.259	1159.6008	0.169068	-365.935438	-365.926327	-365.925382	-365.968544	35.545	
C	-0.4022749778	 1.4882650547	-0.1521375064	-0.468188
C	-0.0838780919	 0.0081178385	-0.0842873684	 0.336966
C	-1.1241704326	-0.7844299515	 0.6899293347	-0.439338
C	 0.5964291208	-0.7413438232	-1.1631505477	-0.064937
C	 1.6598747818	 0.0727359984	-1.8937925492	-0.298591
C	 2.3458294654	 0.2514040196	-0.5047714248	-0.138124
C	 2.6836909902	 1.567759739	 0.004174752	 0.354515
C	 3.0146413481	 2.6461820804	 0.4218865333	-0.465253
N	 1.2669041265	-0.5514192621	 0.2024173282	-0.187051
H	 0.2822422543	 2.0619137274	-0.7754679846	 0.130944
H	-1.4141972659	 1.6174889654	-0.5524490926	 0.113788
H	-0.3814686489	 1.9285267964	 0.8500563878	 0.127949
H	-2.1047863004	-0.7096452405	 0.207305013	 0.111468
H	-0.843027863	-1.8382322604	 0.75378609	 0.125985
H	-1.2162238699	-0.3981978752	 1.7103899689	 0.121753
H	 0.2547559398	-1.7213400476	-1.484164718	 0.089847
H	 2.2693190669	-0.5134731387	-2.5827204489	 0.115703
H	 1.319332057	 0.9756964828	-2.4055307982	 0.114572
H	 3.2459104947	-0.3694277958	-0.4585895677	 0.118957
H	 3.2935067447	 3.6005579623	 0.7950587284	 0.199036
116.6967	134.0334	189.3905	220.3077	254.2338	272.8807	312.4384	364.0599	412.9081	454.3764	501.7943	587.8357	616.9373	631.5649	653.5804	736.8348	780.6007	848.0232	859.3756	954.131	964.7432	990.429	997.3765	1033.1596	1061.7586	1071.6666	1090.463	1133.9802	1151.3452	1232.4494	1258.4937	1269.3719	1301.5449	1360.1811	1406.3003	1415.9075	1425.5554	1476.7373	1480.9122	1497.0003	1505.195	1511.4888	2228.0282	3032.5688	3039.6327	3052.4548	3072.8141	3093.9624	3099.9066	3123.207	3127.7236	3149.2653	3152.6852	3501.9556
CC1(C)C2CC(C#C)N12	CC1(C)[C@H]2C[C@@H](C#C)N12	
InChI=1S/C8H11N/c1-4-6-5-7-8(2,3)9(6)7/h1,6-7H,5H2,2-3H3	InChI=1S/C8H11N/c1-4-6-5-7-8(2,3)9(6)7/h1,6-7H,5H2,2-3H3/t6-,7-,9?/m1/s1
