16
gdb 34643	3.31004	1.39196	1.08686	6.1245	76.21	-0.2576	-0.0574	0.2002	1088.8352	0.126485	-396.919575	-396.912154	-396.91121	-396.951588	28.2	
N	 0.0994662112	-1.0920332145	 0.2114802161	-0.324552
C	 0.0116050423	 0.0542563303	 0.0910529949	 0.311448
C	-0.0763159536	 1.4953687832	-0.0440317291	 0.197968
N	-1.2324089956	 2.0238905416	-0.0491630911	-0.239542
C	-1.3280955849	 3.4777411464	-0.1061433978	-0.184962
C	-0.1572348445	 4.1783981568	-0.8132764245	-0.243843
C	 1.1744859573	 3.5470957931	-0.4771677012	 0.000479
C	 1.5463570707	 3.0862821675	 0.8817764899	-0.255435
N	 1.2026579556	 2.1021941342	-0.1804724175	-0.158994
H	-2.2729019432	 3.7311518713	-0.5959085643	 0.129134
H	-1.4257506576	 3.8333778289	 0.9282949964	 0.131819
H	-0.2988099306	 4.1003772467	-1.8974802321	 0.127364
H	-0.1509718055	 5.2468480492	-0.5728513073	 0.119204
H	 1.9933505748	 3.8349067594	-1.1330292153	 0.113234
H	 2.5871436541	 3.0695799662	 1.1885200804	 0.139835
H	 0.8317253095	 3.2096592995	 1.6903770225	 0.136842
93.8566	165.6969	214.5925	245.536	335.8985	421.52	481.8824	494.0331	567.2512	638.2119	723.343	757.4701	782.6538	836.9301	885.0659	937.0379	975.4895	1006.0492	1063.4597	1095.1875	1112.9016	1131.5944	1165.6289	1198.838	1236.123	1273.5135	1316.8986	1339.7079	1382.3741	1424.7061	1483.916	1488.6741	1510.4212	1691.8264	2356.1906	3023.1314	3039.4183	3074.3795	3082.6292	3122.4853	3131.0633	3213.0934
N#CC1=NCCC2CN12	N#CC1=NCC[C@H]2CN12	
InChI=1S/C6H7N3/c7-3-6-8-2-1-5-4-9(5)6/h5H,1-2,4H2	InChI=1S/C6H7N3/c7-3-6-8-2-1-5-4-9(5)6/h5H,1-2,4H2/t5-,9?/m0/s1
