16
gdb 50647	3.23103	1.19565	0.90186	3.9151	65.97	-0.2614	-0.0443	0.2171	1215.7042	0.124709	-475.078208	-475.069911	-475.068967	-475.112124	29.53	
O	-0.8957395447	 1.0711846154	 0.4341743812	-0.242216
C	 0.1995578617	 0.8437304032	-0.005830249	 0.134103
C	 1.3520572075	 1.8361215644	 0.0839313757	 0.040363
C	 1.4388656037	 2.5358218882	 1.4330318251	-0.222122
C	 2.6293717596	 3.4863689155	 1.3940267871	-0.171929
N	 3.7694301638	 2.7951860824	 0.8089446046	-0.36276
C	 3.7655840329	 1.6400728836	 0.075698359	 0.465596
O	 4.7633862733	 1.0907329686	-0.3140662223	-0.384376
O	 2.5408834668	 1.0969972512	-0.2004325787	-0.260139
H	 0.4594580111	-0.104695287	-0.5213013548	 0.113834
H	 1.1954020434	 2.5829130961	-0.712505287	 0.119088
H	 0.5070809119	 3.0687880186	 1.6312950089	 0.13872
H	 1.573994585	 1.7827700246	 2.2164313206	 0.128519
H	 2.3761551675	 4.3822667978	 0.808672591	 0.116686
H	 2.890209502	 3.8211304927	 2.4036106164	 0.123614
H	 4.6964845646	 3.1564865046	 0.9640322021	 0.26302
59.6384	91.0441	117.2692	186.3206	221.899	370.5134	442.6919	460.9718	519.675	528.684	613.3216	710.8341	758.2513	810.593	876.515	954.3299	959.8361	963.3725	1086.814	1113.9329	1123.456	1153.761	1226.878	1249.7818	1295.4111	1322.6649	1347.8074	1380.2296	1402.744	1409.9855	1473.0768	1487.3524	1529.65	1839.2765	1853.3697	2924.3411	2972.215	2996.5643	3055.658	3068.8359	3128.9351	3652.225
O=CC1CCNC(=O)O1	O=C[C@H]1CCNC(=O)O1	
InChI=1S/C5H7NO3/c7-3-4-1-2-6-5(8)9-4/h3-4H,1-2H2,(H,6,8)	InChI=1S/C5H7NO3/c7-3-4-1-2-6-5(8)9-4/h3-4H,1-2H2,(H,6,8)/t4-/m1/s1
