16
gdb 30886	2.62756	1.29959	0.91445	1.5778	68.55	-0.1668	0.0604	0.2272	1233.6666	0.122681	-475.027702	-475.018258	-475.017314	-475.061944	34.021	
C	 0.2723848426	 1.0214444866	-0.3925819069	-0.248346
O	-0.2044102486	 0.1959117634	 0.6765162686	-0.277303
C	-1.3038295494	-0.5439699527	 0.3724848574	 0.190362
C	-1.406819436	-1.8554977227	 0.0002938199	 0.265296
O	-0.3908238106	-2.7443590858	-0.2020473123	-0.459986
C	-2.7947608295	-2.1661728335	-0.1726975553	-0.392954
C	-3.4798804263	-1.009504101	 0.1079601074	 0.390019
O	-4.8031890976	-0.705715284	 0.1414702981	-0.436448
N	-2.5992332762	-0.0116390688	 0.410479513	-0.362209
H	 1.1727937925	 1.5205436707	-0.0270787247	 0.127961
H	 0.5133538089	 0.419093183	-1.2764793161	 0.122971
H	-0.4725882765	 1.7761831034	-0.672406078	 0.118043
H	 0.4203290876	-2.3271652321	 0.1096487797	 0.295435
H	-3.2075662166	-3.1135653276	-0.479901683	 0.095237
H	-5.2996555182	-1.5106351773	-0.0344594767	 0.306756
H	-2.8559157362	 0.8454857783	 0.8698770189	 0.265165
70.3934	128.4794	141.4932	218.0896	230.5483	261.8233	269.3697	313.6035	359.7811	383.1503	439.5862	544.3728	600.0748	647.4601	658.4817	677.514	721.3841	816.656	1007.1549	1032.1013	1119.2264	1171.0994	1172.5152	1184.4835	1205.3678	1244.579	1256.9295	1383.1446	1462.6842	1483.943	1499.3956	1506.8136	1543.8147	1605.7782	1688.7777	3011.9478	3077.9872	3125.7388	3257.2042	3674.672	3807.277	3846.0409
COC1=C(O)C=C(O)N1	COc1c(O)cc(O)[nH]1	
InChI=1S/C5H7NO3/c1-9-5-3(7)2-4(8)6-5/h2,6-8H,1H3	InChI=1S/C5H7NO3/c1-9-5-3(7)2-4(8)6-5/h2,6-8H,1H3
