18
gdb 102281	2.0244	1.29406	0.93943	2.601	69.54	-0.2546	-0.0256	0.229	1308.9876	0.144979	-476.28064	-476.270509	-476.269565	-476.316723	35.304	
C	-0.1114279285	 1.555345004	 0.0681108011	-0.386001
C	 0.060308289	 0.0351909831	 0.028675239	-0.206638
C	 0.749382957	-0.4537583821	-1.2497021171	 0.039693
O	 2.0767684047	 0.05480015	-1.2643463656	-0.259321
C	 2.6783498422	 0.0773397516	-2.4890377027	 0.514132
N	 3.9755200703	 0.4790156543	-2.3531854571	-0.563994
O	 2.1197445679	-0.1676657083	-3.5308962135	-0.401707
C	 0.7588700146	-1.9747247006	-1.3170208344	 0.153734
O	 1.750568008	-2.6512176115	-1.3458892546	-0.240157
H	 0.8571383948	 2.0564051668	-0.0044009508	 0.136374
H	-0.7344707184	 1.9034477572	-0.7625997135	 0.12176
H	-0.588750368	 1.8673718339	 1.0013877091	 0.119021
H	 0.6473384905	-0.3043407935	 0.8900985794	 0.119189
H	-0.9169702565	-0.4574936113	 0.097114673	 0.108232
H	 0.2079301318	-0.0958468943	-2.1356111037	 0.12495
H	 4.404854743	 0.3919940759	-1.447049126	 0.267349
H	 4.5606201056	 0.3333738198	-3.158469936	 0.271202
H	-0.260869558	-2.424072055	-1.3270727266	 0.082181
50.5759	71.9109	97.2804	108.9333	180.6116	209.5353	256.9659	301.151	376.7502	414.7093	423.3121	468.6124	510.7573	658.2478	730.2902	769.7697	786.6264	835.0607	938.9067	949.8936	980.6537	1031.9414	1095.5969	1117.2899	1162.9684	1174.7664	1265.0047	1310.703	1343.7252	1378.5765	1388.6486	1409.3837	1423.4615	1478.7041	1496.2815	1507.8078	1615.0304	1837.0631	1849.4384	2869.8566	3030.3762	3036.069	3041.4409	3073.1654	3109.9828	3126.0335	3609.2562	3735.3363
CCC(OC(N)=O)C=O	CC[C@@H](OC(=O)N)C=O	
InChI=1S/C5H9NO3/c1-2-4(3-7)9-5(6)8/h3-4H,2H2,1H3,(H2,6,8)	InChI=1S/C5H9NO3/c1-2-4(3-7)9-5(6)8/h3-4H,2H2,1H3,(H2,6,8)/t4-/m1/s1
