17
gdb 103015	1.98304	1.45742	1.13561	5.6342	69.66	-0.2418	0.0172	0.259	1143.0435	0.135197	-455.116825	-455.107268	-455.106324	-455.151005	34.893	
N	 0.0519837194	 1.2800114679	-0.5579591077	-0.507702
C	-0.0406592825	 0.0475120152	 0.2242284319	-0.232837
C	-1.4501024445	-0.5270495833	 0.1359226553	 0.075343
C	-2.4638911026	 0.1747380218	 0.8762437049	 0.260831
N	-3.298321515	 0.7000348998	 1.4823389046	-0.347507
C	-1.9247414246	-1.1521361475	-1.1733454443	-0.002289
O	-0.9558810646	-1.1794423298	-2.1912887628	-0.428892
C	-1.660139379	-2.058026277	-0.0076997746	 0.054771
O	-0.5623227244	-2.8970666885	-0.0711480717	-0.421815
H	 0.94340171	 1.7324270546	-0.3821095807	 0.230654
H	 0.0272664999	 1.0483255537	-1.5464097788	 0.237753
H	 0.670921666	-0.7379126995	-0.0633706918	 0.095757
H	 0.1625544854	 0.2862074999	 1.2730536864	 0.125653
H	-2.9403550017	-0.9427685243	-1.4969433919	 0.125895
H	-1.3087369108	-1.692293215	-2.9265794636	 0.308145
H	-2.4897732164	-2.4899662989	 0.5415737262	 0.133444
H	-0.1361940749	-2.730750989	-0.9241329014	 0.292796
88.9196	125.6589	149.2174	176.6528	219.264	250.6205	276.0527	300.1903	332.3959	451.1857	479.8208	492.0167	565.8939	607.0111	669.9534	715.4499	840.4853	854.328	884.0209	959.8714	1012.4419	1073.7817	1075.6437	1111.7166	1145.7278	1194.6805	1222.1628	1265.0619	1290.1155	1323.4851	1340.5706	1409.834	1424.0853	1466.9072	1507.8608	1658.0832	2346.2043	3011.1603	3075.9728	3148.9366	3174.7627	3497.5014	3580.1512	3735.6899	3813.1173
NCC1(C#N)C(O)C1O	NC[C@@]1(C#N)[C@@H](O)[C@H]1O	
InChI=1S/C5H8N2O2/c6-1-5(2-7)3(8)4(5)9/h3-4,8-9H,1,6H2	InChI=1S/C5H8N2O2/c6-1-5(2-7)3(8)4(5)9/h3-4,8-9H,1,6H2/t3-,4+,5+
