20
gdb 40634	3.30503	1.25716	1.21991	1.0961	84.56	-0.2171	0.0304	0.2475	1138.0178	0.172496	-365.970089	-365.962404	-365.96146	-366.002536	30.497	
C	 0.097623303	 1.4027763503	 0.0149679477	-0.22322
C	 1.3514368172	 0.602428026	-0.0587479064	-0.221745
N	 0.0537768847	-0.0562027297	 0.0346701325	-0.05143
C	-0.2674367474	-0.6644105073	 1.292397994	 0.05098
C	-1.5834966726	-1.3724684635	 1.4728598619	-0.101418
C	-2.3745457288	-1.770060349	 0.2235712277	-0.266698
C	-1.4801158564	-2.7745274195	-0.4707185148	-0.055452
C	-0.3551363839	-2.9981666711	 0.2091602993	-0.06354
C	-0.282683548	-2.1765461078	 1.4508153646	-0.132261
H	-0.101514533	 1.9326663432	 0.9453383277	 0.108552
H	-0.3091339929	 1.8770340394	-0.8739050322	 0.114877
H	 1.8764601828	 0.4812091503	-1.0021151657	 0.1159
H	 1.9905236033	 0.5961666489	 0.8229060552	 0.108237
H	 0.0866818972	-0.1277356676	 2.1790448797	 0.065468
H	-2.1237588816	-1.2019822906	 2.3969494122	 0.081363
H	-3.3470948512	-2.2035738078	 0.4905603573	 0.099332
H	-2.5800410761	-0.907757501	-0.4231370338	 0.114787
H	-1.7316487472	-3.2095944581	-1.4314570564	 0.088046
H	 0.4434481354	-3.6648485855	-0.095433476	 0.087768
H	 0.1639636854	-2.5901940996	 2.3493112355	 0.080452
71.8064	140.0789	156.7551	288.5323	309.3547	380.9084	518.097	588.2011	704.2284	734.0384	767.5928	782.5416	796.0113	811.3577	869.8232	900.3724	932.2428	939.8409	953.2319	979.3951	1020.9722	1032.0516	1045.9028	1056.5345	1069.5389	1110.4215	1114.8445	1118.122	1137.2514	1160.7949	1175.0885	1191.3181	1221.3172	1301.064	1310.02	1330.0927	1362.7994	1378.1976	1426.0342	1469.5024	1492.5799	1519.8734	1675.6152	3018.5664	3031.2132	3048.8199	3092.0861	3096.5749	3155.0504	3172.9896	3173.7025	3185.0957	3188.3842	3210.3785
C1CN1C1C2CC=CC12	C1CN1[C@H]1[C@H]2CC=C[C@@H]12	
InChI=1S/C8H11N/c1-2-6-7(3-1)8(6)9-4-5-9/h1-2,6-8H,3-5H2	InChI=1S/C8H11N/c1-2-6-7(3-1)8(6)9-4-5-9/h1-2,6-8H,3-5H2/t6-,7+,8-/m1/s1
