18
gdb 33395	2.25086	1.29154	0.8578	3.9491	82.02	-0.2821	0.0146	0.2967	1326.2492	0.146775	-364.778061	-364.768979	-364.768035	-364.812467	33.225	
C	-0.0987223353	-1.1920517733	 0.0436583606	-0.424527
C	 0.0100266302	 0.0030629216	 0.0186363923	 0.330997
C	 0.0976260188	 1.4631139726	-0.0365322133	-0.362028
C	 1.4984803	 1.9115132412	-0.1132138659	 0.295395
N	 2.5852181357	 2.294991371	-0.1912467205	-0.324447
C	-0.7168552904	 2.0454659539	-1.2145316964	 0.060384
C	-2.2594987406	 1.8869613272	-1.1782822346	-0.237109
C	-2.3713623171	 3.3301082171	-1.7433756667	-0.217096
C	-0.9062266653	 3.5838329324	-1.2928787165	-0.23869
H	-0.1824432769	-2.250669027	 0.071443466	 0.208961
H	-0.3171600474	 1.875941218	 0.8944303747	 0.148796
H	-0.3061336328	 1.6531609996	-2.148690174	 0.101389
H	-2.6955002902	 1.0686373535	-1.7537439596	 0.111519
H	-2.6308670059	 1.8250408413	-0.1501330449	 0.105661
H	-2.4670546587	 3.3331137358	-2.8323422124	 0.1113
H	-3.1455601623	 3.9759804527	-1.3249620953	 0.105542
H	-0.8627513565	 4.043684162	-0.2999915718	 0.106905
H	-0.2463363454	 4.1399374404	-1.9608598717	 0.117048
67.1113	112.6555	114.3512	125.2469	191.7991	310.9778	359.9545	374.4496	466.2165	503.0666	577.3127	643.2462	665.2441	666.3959	783.3092	784.3771	893.9012	918.1211	932.4867	962.5394	977.6387	1009.1256	1085.1511	1090.838	1131.0024	1204.2715	1217.3926	1257.6943	1261.7003	1267.4892	1291.2966	1294.2622	1313.8846	1367.355	1478.6752	1486.3569	1509.3879	2246.8977	2363.2929	3007.4229	3052.6496	3055.4216	3066.8087	3076.9076	3111.5793	3117.9358	3129.4266	3502.0749
C#CC(C#N)C1CCC1	C#C[C@@H](C#N)C1CCC1	
InChI=1S/C8H9N/c1-2-7(6-9)8-4-3-5-8/h1,7-8H,3-5H2	InChI=1S/C8H9N/c1-2-7(6-9)8-4-3-5-8/h1,7-8H,3-5H2/t7-/m0/s1
