18
gdb 68799	2.84904	1.30262	1.08067	6.2194	77.44	-0.2173	0.0219	0.2392	1162.7786	0.147524	-398.09146	-398.082404	-398.08146	-398.124945	34.035	
C	 0.0054214662	 1.5455982481	 0.0453697011	-0.509277
C	 0.0349990087	 0.0515346329	 0.070174072	 0.311831
C	 1.1786973484	-0.8144351375	-0.3805316747	-0.34902
C	 0.655805678	-0.9908704725	 1.0222785431	 0.250328
N	 1.4636636911	-0.9985622645	 2.1839172026	-0.606898
C	-0.7019715822	-1.7223538655	 0.9538015962	-0.160773
N	-1.1988930497	-0.7582695076	-0.08862385	-0.352604
C	-0.7065359692	-3.1292706176	 0.5487050608	 0.30079
N	-0.6813527869	-4.2413890524	 0.2346121951	-0.332481
H	 0.9916613921	 1.9551677538	 0.2833220125	 0.127632
H	-0.2787861909	 1.9176204638	-0.945919139	 0.140837
H	-0.7114482125	 1.9461845892	 0.7726447388	 0.116238
H	 1.0247411135	-1.5766490189	-1.1401107706	 0.135112
H	 2.1411010734	-0.3117058251	-0.4227189988	 0.110404
H	 2.4511785115	-0.9207442018	 1.9833636622	 0.241394
H	 1.2028563586	-0.2996845573	 2.8692013803	 0.236071
H	-1.2365703373	-1.6264505264	 1.9045374324	 0.117076
H	-2.0082745528	-0.2602668708	 0.2719216761	 0.223339
100.3929	133.2991	145.9466	197.7986	214.1328	264.9009	346.5329	362.7008	421.242	470.4179	534.0696	580.3114	619.8968	672.6154	725.3559	770.6396	823.3312	847.5273	935.3799	958.5557	976.8217	1005.849	1060.1802	1074.4618	1092.7585	1122.1271	1175.9208	1239.2788	1278.5331	1301.4954	1351.5203	1382.3702	1409.915	1435.8014	1480.3685	1495.85	1512.3444	1654.7323	2354.4012	3020.8239	3057.4484	3078.5243	3105.9137	3110.031	3199.9689	3501.9994	3528.3082	3622.7877
CC12CC1(N)C(N2)C#N	C[C@@]12C[C@]1(N)[C@@H](N2)C#N	
InChI=1S/C6H9N3/c1-5-3-6(5,8)4(2-7)9-5/h4,9H,3,8H2,1H3	InChI=1S/C6H9N3/c1-5-3-6(5,8)4(2-7)9-5/h4,9H,3,8H2,1H3/t4-,5+,6-/m0/s1
