15
gdb 34669	3.65313	1.22007	0.95426	4.9488	69.81	-0.2759	-0.057	0.2188	1162.6988	0.114043	-453.949113	-453.941421	-453.940476	-453.981776	28.021	
N	 0.0113306222	-1.1539461226	-0.3852751242	-0.320416
C	-0.0051546407	-0.0184911375	-0.1713751571	 0.303082
C	-0.0170139497	 1.4078985009	 0.1025283005	 0.272156
N	-1.1196583876	 2.0175561192	 0.0277088484	-0.279082
C	-1.2651475614	 3.4581612273	 0.1225701894	-0.1646
C	-0.4825614053	 4.1763606636	 1.2183181512	-0.10486
O	 0.922740379	 4.0979178501	 1.0211589268	-0.207373
C	 1.4577170558	 2.8673657991	 1.3379090877	 0.005948
O	 1.2468349473	 1.8450487195	 0.3526103669	-0.256854
H	-0.973554986	 3.884690819	-0.8475910858	 0.142243
H	-2.3299641831	 3.6757186411	 0.2586460514	 0.125247
H	-0.7355705387	 5.2400549237	 1.2042491005	 0.126877
H	-0.7455475546	 3.7680006089	 2.2060529609	 0.109235
H	 2.5414645726	 2.974730196	 1.3774382615	 0.141358
H	 1.0601999803	 2.4946799317	 2.2949004618	 0.107041
75.4013	147.6978	175.8101	218.595	335.1315	379.2843	431.1305	440.4733	553.5428	595.8466	644.1114	726.0326	782.542	873.8578	899.4241	982.5143	1026.2989	1074.0956	1106.2962	1133.2724	1184.2426	1233.6793	1262.6101	1312.9465	1343.7107	1378.6966	1404.0956	1453.2607	1470.4896	1485.2087	1505.2708	1744.2348	2360.3379	2985.6268	2996.8595	3020.6607	3073.7494	3098.7768	3143.2189
N#CC1=NCCOCO1	N#CC1=NCCOCO1	
InChI=1S/C5H6N2O2/c6-3-5-7-1-2-8-4-9-5/h1-2,4H2	InChI=1S/C5H6N2O2/c6-3-5-7-1-2-8-4-9-5/h1-2,4H2
