18
gdb 31102	3.30705	1.11477	0.86712	2.254	77.04	-0.1643	0.0548	0.219	1313.4561	0.14921	-435.286038	-435.276547	-435.275603	-435.320312	35.199	
N	 0.3309556962	 1.4692739646	 0.1756398704	-0.612721
C	 0.0011335585	 0.0936009779	 0.1885908277	 0.25054
C	-1.1394530631	-0.6206934877	 0.4532215165	-0.3219
C	-0.8578638679	-2.0095458202	 0.2341556472	 0.190057
C	-1.7733152848	-3.1782058841	 0.418784447	-0.192324
O	-1.6277558634	-4.1678624741	-0.6137943817	-0.4168
C	 0.4682074072	-2.0911107084	-0.1537839368	 0.234139
N	 1.2661497715	-3.2164264966	-0.4083399396	-0.61207
N	 0.9773281942	-0.8213294082	-0.1807525914	-0.305998
H	-0.4387610997	 2.0248333378	-0.1789287035	 0.241822
H	 0.5506415875	 1.8200001588	 1.1038773124	 0.24039
H	-2.0838736738	-0.2051096215	 0.7740378328	 0.078135
H	-1.5664920635	-3.7295704118	 1.344753628	 0.113628
H	-2.8156956644	-2.8314495854	 0.4821880319	 0.093945
H	-1.7311614739	-3.7003935861	-1.4504236724	 0.276545
H	 0.6604300821	-4.0231753401	-0.52526069	 0.256864
H	 1.831431503	-3.1154678451	-1.2452966362	 0.233409
H	 1.9093624044	-0.5576183496	-0.4520456123	 0.252339
73.7389	88.6977	162.1472	194.719	234.3675	284.9991	302.1653	325.5176	381.9375	436.7371	454.4318	507.109	619.9337	636.318	659.1861	726.0204	783.4876	796.06	811.5256	872.0183	971.2171	1015.8445	1026.7809	1110.5164	1159.2626	1192.7516	1197.9269	1221.7612	1263.2399	1340.0635	1378.3109	1407.0735	1431.645	1508.4311	1528.7978	1569.896	1636.7591	1659.7033	1672.3256	2990.144	3036.0058	3233.0342	3484.2592	3491.2869	3573.1216	3577.6126	3670.8885	3795.9116
NC1=CC(CO)=C(N)N1	Nc1cc(CO)c(N)[nH]1	
InChI=1S/C5H9N3O/c6-4-1-3(2-9)5(7)8-4/h1,8-9H,2,6-7H2	InChI=1S/C5H9N3O/c6-4-1-3(2-9)5(7)8-4/h1,8-9H,2,6-7H2
