21
gdb 115773	3.15377	0.89686	0.76912	3.4224	80.44	-0.2449	-0.0166	0.2283	1525.5384	0.180346	-424.21459	-424.204608	-424.203664	-424.25104	35.025	
C	 0.2120672145	 1.545209878	-0.1660442421	-0.239229
O	-0.3395107344	 0.3122051901	-0.5728700256	-0.240538
C	 0.5910468884	-0.546436105	-1.1706990562	 0.15554
C	 1.6319880788	-1.2883133013	-0.284695683	-0.257398
C	 1.3285164809	-2.577107682	-1.1002055598	-0.234903
C	 0.013009548	-1.9168562446	-1.6141868177	-0.066058
C	-1.2427645938	-2.3391618595	-0.8353755363	-0.268028
C	-1.7053207946	-3.7032153249	-1.285515833	 0.155153
O	-1.7274403283	-4.6911380852	-0.5962732183	-0.243166
H	 0.9939948382	 1.4146110667	 0.5963931215	 0.111676
H	 0.647833872	 2.0932555077	-1.0162160472	 0.105702
H	-0.5991895961	 2.1398331611	 0.2602536689	 0.12927
H	 1.0877333956	-0.0402100593	-2.0141781203	 0.066006
H	 2.6590849834	-0.9175134286	-0.2815240966	 0.098237
H	 1.2777862228	-1.3636714802	 0.747142553	 0.114096
H	 2.0506931349	-2.7425329812	-1.9033312113	 0.105371
H	 1.2158056287	-3.5059288578	-0.5371823037	 0.120105
H	-0.1785046315	-2.0063939566	-2.688507231	 0.072893
H	-1.0614736246	-2.363894479	 0.2420968959	 0.11987
H	-2.0409349858	-1.6124658652	-1.0329647863	 0.127101
H	-2.0226646571	-3.7482715831	-2.3552014508	 0.068301
39.3062	62.0046	100.3283	110.3099	135.6268	198.5366	257.4407	305.2444	368.5925	441.6551	496.2454	528.4136	691.3294	764.2075	785.9405	893.2767	901.3433	921.4336	950.8586	969.8389	1033.7971	1046.87	1076.6621	1113.6182	1147.8998	1168.7018	1184.0221	1198.583	1217.1121	1227.0104	1253.3042	1260.8262	1269.1929	1293.9862	1305.7939	1375.8766	1388.2585	1429.166	1462.1006	1478.9962	1482.0927	1488.2137	1500.4878	1508.9507	1831.0846	2843.3208	2966.3111	2978.1132	3026.6227	3038.0489	3046.7668	3062.1166	3070.3128	3110.2844	3111.7205	3117.3544	3127.2022
COC1CCC1CC=O	CO[C@H]1CC[C@H]1CC=O	
InChI=1S/C7H12O2/c1-9-7-3-2-6(7)4-5-8/h5-7H,2-4H2,1H3	InChI=1S/C7H12O2/c1-9-7-3-2-6(7)4-5-8/h5-7H,2-4H2,1H3/t6-,7-/m0/s1
