25
gdb 58944	2.40566	1.29334	1.0578	0.2168	92.63	-0.2397	0.0795	0.3192	1320.6482	0.228337	-352.341188	-352.331113	-352.330168	-352.375723	38.866	
C	 0.0356581248	 1.4724457466	-0.1840720626	-0.386398
C	 0.0160567968	-0.0418183849	 0.0851500168	-0.078539
C	 0.790382387	-0.3839548479	 1.3675960765	-0.393609
C	-1.4024128873	-0.569431325	 0.1018759063	 0.390448
C	-2.4259912709	-0.3228344576	 1.2295040852	-0.302541
C	-2.9314189866	-1.7932909169	 1.0785460327	-0.22293
C	-1.9248651456	-2.0096843232	-0.0562299814	-0.143384
C	-2.1128496294	-0.9966004355	-1.1598319771	-0.055977
C	-3.4463519734	-0.4808012571	-1.6612010398	-0.42127
H	 1.0617713997	 1.8523662409	-0.23110742	 0.106399
H	-0.459868744	 1.7135239864	-1.12969123	 0.112815
H	-0.4826673812	 2.0178504996	 0.6131977474	 0.114144
H	 0.5297801848	-0.5375659279	-0.7509174159	 0.067087
H	 0.368151025	 0.1272986108	 2.2397217027	 0.113245
H	 0.7712733725	-1.460146262	 1.5669374901	 0.111275
H	 1.8371240016	-0.0733109195	 1.2835972444	 0.107617
H	-1.9569689993	-0.1512491067	 2.2005749812	 0.100783
H	-3.1552330531	 0.4759229247	 1.0598210469	 0.091502
H	-2.704920457	-2.3946968034	 1.9617975777	 0.099308
H	-3.9886614914	-1.9353841783	 0.8308761779	 0.092785
H	-1.3617510914	-2.9224827186	-0.2205680572	 0.074486
H	-1.3997537229	-1.1615619321	-1.9672309735	 0.076208
H	-4.1717813547	-0.338969905	-0.8564098924	 0.118984
H	-3.3276439857	 0.4828539698	-2.1693058138	 0.113421
H	-3.8876388384	-1.1812150572	-2.3792420222	 0.114142
59.6394	128.1459	176.9551	197.7754	224.4783	245.4254	259.6584	280.575	311.1009	316.1532	454.7958	492.7731	534.3811	627.5123	721.7931	761.9857	805.2087	851.5632	903.6695	923.734	926.3454	952.1518	960.2617	980.3875	991.9477	1036.5916	1067.1307	1079.9946	1097.6983	1136.7108	1143.1537	1151.2838	1190.9275	1220.4559	1236.2439	1239.3187	1259.2315	1307.7277	1330.2085	1341.0085	1375.3763	1395.5267	1416.1644	1417.9901	1459.4133	1476.4168	1486.0854	1492.1487	1501.1726	1503.8659	1505.4	1510.6891	1512.4344	2999.1402	3025.4812	3030.233	3031.0391	3042.5179	3051.1489	3085.0568	3089.5255	3092.2839	3097.0521	3101.4878	3103.4381	3104.8556	3112.2536	3123.137	3160.9043
CC(C)C12CCC1C2C	CC(C)[C@]12CC[C@H]1[C@H]2C	
InChI=1S/C9H16/c1-6(2)9-5-4-8(9)7(9)3/h6-8H,4-5H2,1-3H3	InChI=1S/C9H16/c1-6(2)9-5-4-8(9)7(9)3/h6-8H,4-5H2,1-3H3/t7-,8+,9+/m1/s1
