15
gdb 21950	6.97612	1.05882	0.97868	2.0273	62.39	-0.2565	0.0093	0.2658	1145.3497	0.121274	-396.002313	-395.994776	-395.993831	-396.035405	26.345	
O	 0.0772157939	 1.4313546285	 0.1915976264	-0.41234
C	 0.0650031603	 0.0175387123	 0.151775323	-0.058377
C	-1.3555221263	-0.5435818019	-0.0574273104	-0.332981
C	-1.3700440268	-2.0353196121	-0.0896062271	 0.37098
N	-0.8149121343	-2.8084775898	-1.0107456243	-0.312174
C	-1.080701432	-4.0657686302	-0.5613585458	 0.025709
N	-1.7596069428	-4.1304619019	 0.5714391447	-0.213814
N	-1.9323138083	-2.8171987718	 0.8588961499	-0.238464
H	-0.092201412	 1.7565574698	-0.6983273834	 0.286529
H	 0.7288043142	-0.3841275621	-0.6253207664	 0.122144
H	 0.4535077762	-0.3164759291	 1.1193877898	 0.118451
H	-2.0095408446	-0.1677866586	 0.7361989705	 0.112721
H	-1.7491229586	-0.1677631214	-1.0092317182	 0.12715
H	-0.7678953229	-4.9571976956	-1.0842877869	 0.125878
H	-2.4375097857	-2.5485688061	 1.6876198082	 0.278586
38.5594	96.8948	121.5126	297.3015	331.6747	364.9682	369.0601	567.0538	699.1732	714.1109	783.8374	796.661	912.9157	982.2074	1014.7693	1033.7902	1049.6657	1077.2542	1131.4972	1148.0972	1215.6612	1261.158	1306.2081	1313.7353	1328.7719	1396.5512	1413.2019	1421.3152	1476.0501	1502.8484	1511.9478	1585.5558	3020.6785	3038.8946	3074.5199	3097.3219	3260.3698	3660.3541	3817.1341
OCCC1=NC=NN1	OCCc1ncn[nH]1	
InChI=1S/C4H7N3O/c8-2-1-4-5-3-6-7-4/h3,8H,1-2H2,(H,5,6,7)	InChI=1S/C4H7N3O/c8-2-1-4-5-3-6-7-4/h3,8H,1-2H2,(H,5,6,7)
