18
gdb 35865	2.14488	1.69562	1.18422	2.8217	74.91	-0.2762	0.0256	0.3018	1085.754	0.148692	-401.959544	-401.95144	-401.950496	-401.993021	30.511	
N	 0.0658487796	-1.2404208659	 0.497251855	-0.333442
C	 0.0512416592	-0.10432291	 0.282425764	 0.276861
C	 0.0446417706	 1.335770889	 0.0198228826	-0.233346
C	-0.6745669708	 2.1160217489	 1.1490391517	-0.228264
C	 0.4166450191	 2.275802624	 2.2214031961	-0.218119
C	 1.698170119	 2.5739836684	 1.4155655516	-0.291494
C	 1.4780380235	 1.9186663098	 0.0477460683	 0.438264
C	 2.5387344829	 1.427974693	-0.8344621416	-0.244414
O	 1.8635252495	 2.6628479747	-1.1059560639	-0.27374
H	-0.3985020814	 1.5058403012	-0.9650436717	 0.135959
H	-0.9677690652	 3.0941357177	 0.7530611954	 0.118481
H	-1.5733036042	 1.6114018636	 1.5081710132	 0.123111
H	 0.1822340702	 3.0581221604	 2.9467511982	 0.110298
H	 0.5256430687	 1.3371030088	 2.7752064515	 0.126347
H	 1.8218274535	 3.6495693033	 1.2530517711	 0.126817
H	 2.6028373093	 2.2103359263	 1.9087094466	 0.116966
H	 3.5783083485	 1.5223773659	-0.5244314553	 0.121566
H	 2.334420458	 0.6170090009	-1.5323479928	 0.128147
34.096	137.8173	144.7772	262.3939	315.7114	359.7366	398.8027	469.5608	517.9811	548.9983	630.4473	787.0721	822.2014	845.9426	849.8923	906.0058	910.9939	953.4553	967.5091	992.357	1043.4143	1097.5641	1127.2688	1145.313	1161.8425	1181.663	1206.3397	1244.7417	1262.878	1309.4566	1319.3368	1339.2419	1355.3698	1415.5648	1481.8112	1490.0498	1505.1022	1532.6972	2351.9232	3050.9774	3056.3751	3057.3253	3083.9992	3084.6246	3101.23	3112.3293	3121.6873	3172.5308
N#CC1CCCC11CO1	N#C[C@H]1CCC[C@]21CO2	
InChI=1S/C7H9NO/c8-4-6-2-1-3-7(6)5-9-7/h6H,1-3,5H2	InChI=1S/C7H9NO/c8-4-6-2-1-3-7(6)5-9-7/h6H,1-3,5H2/t6-,7-/m1/s1
