19
gdb 106696	2.49869	1.50018	1.16662	2.1914	74.77	-0.2486	0.0724	0.321	1121.7134	0.15795	-422.971761	-422.963093	-422.962149	-423.00508	33.171	
C	 0.1353587872	 1.4363093376	-0.0430713771	-0.498289
C	-0.045642401	-0.0323521184	 0.1741712909	 0.336895
O	 1.092029095	-0.8916998145	-0.0281182075	-0.347257
C	 0.4060764897	-0.9560524917	 1.246664036	 0.317065
C	 1.269330512	-0.7507983736	 2.4516677289	-0.171321
O	 2.180599666	-1.8255425401	 2.6282206605	-0.416181
C	-0.8304151422	-1.8152126227	 1.0751255065	-0.120666
C	-2.0600826371	-0.9642862361	 1.269052586	-0.299618
C	-1.3030898162	-0.8616698566	-0.0308656903	-0.124713
H	 1.0614553932	 1.7903893208	 0.4166632905	 0.132793
H	 0.1842371933	 1.6611899459	-1.1144526026	 0.13366
H	-0.7061885191	 1.9947718192	 0.3786872057	 0.12798
H	 1.7955291451	 0.2118384119	 2.3661615206	 0.092214
H	 0.6529471063	-0.7204496675	 3.3559751848	 0.11408
H	 2.67958645	-1.8983636936	 1.8065438757	 0.293967
H	-0.8585366277	-2.8970264676	 1.0654760588	 0.102726
H	-3.0086929686	-1.4906437282	 1.2209867299	 0.118179
H	-2.0500843433	-0.1387248047	 1.976199259	 0.110586
H	-1.7374372325	-1.1297111201	-0.9859888563	 0.097899
67.0892	137.0637	190.9001	209.6682	229.2268	279.6311	364.3862	421.0913	448.8076	552.5334	588.6456	611.7893	720.5488	751.9979	808.4849	821.3034	890.7272	927.8968	930.8252	940.3641	1011.7184	1036.1901	1059.5306	1069.8873	1082.248	1098.9999	1127.9332	1157.1582	1199.2043	1209.5095	1270.1696	1312.0524	1330.0873	1371.1746	1408.1299	1426.7838	1470.5841	1486.7546	1488.4614	1489.3451	1500.395	2991.0065	3036.2759	3078.927	3098.1159	3112.9163	3122.3611	3189.2405	3195.5382	3207.8113	3800.6975
CC12OC1(CO)C1CC21	C[C@@]12O[C@]1(CO)[C@H]1C[C@@H]21	
InChI=1S/C7H10O2/c1-6-4-2-5(4)7(6,3-8)9-6/h4-5,8H,2-3H2,1H3	InChI=1S/C7H10O2/c1-6-4-2-5(4)7(6,3-8)9-6/h4-5,8H,2-3H2,1H3/t4-,5+,6+,7-/m1/s1
