23
gdb 122556	4.88097	0.71034	0.67927	0.7304	86.98	-0.2475	0.0913	0.3388	1768.8963	0.205324	-388.254348	-388.24475	-388.243806	-388.289764	35.458	
C	-0.1094793779	 1.4932392178	 0.1736429403	-0.383891
C	 0.0741845926	-0.0039996725	-0.0100073085	-0.022803
O	 0.6810210409	-0.5304966217	 1.150548588	-0.245926
C	 0.8911124533	-1.9263330657	 1.092056925	-0.069979
C	 1.5078625963	-2.3686674267	 2.4057457705	 0.006412
C	 0.6475884988	-2.3055238433	 3.7139358311	-0.242531
C	 0.9412255318	-3.7923914388	 3.9564819123	-0.035681
C	 0.4304036034	-4.6114283328	 2.8079127425	-0.274766
C	 1.7313996291	-3.8690840304	 2.6459822468	-0.073458
H	 0.8562659641	 1.9810606963	 0.3338507214	 0.125302
H	-0.5785340961	 1.9326755741	-0.7118511194	 0.112439
H	-0.7435698429	 1.6979643222	 1.0410195606	 0.125366
H	-0.8989637695	-0.4939659392	-0.1871431129	 0.082166
H	 0.7001593008	-0.2108781338	-0.8953790309	 0.082256
H	-0.0639862828	-2.4468564804	 0.9094774489	 0.079972
H	 1.5612007799	-2.1825295183	 0.2519383585	 0.080041
H	 2.4382304577	-1.8119517305	 2.550532001	 0.080339
H	 1.0792491015	-1.6391261547	 4.4627470789	 0.103654
H	-0.4082879055	-2.0449883489	 3.5855268467	 0.094888
H	 1.17891166	-4.2381687489	 4.914600694	 0.08292
H	 0.5353373205	-5.6862629936	 2.9180233326	 0.108593
H	-0.4668241887	-4.3109548245	 2.2720458495	 0.103933
H	 2.6544977526	-4.3978203156	 2.4385546328	 0.080756
49.7397	76.2635	99.3934	131.9421	197.4541	246.6038	269.5224	334.92	422.4474	445.0894	531.225	676.873	778.8373	799.8324	820.6996	841.0256	882.9829	902.7831	942.4554	962.3706	989.0034	1014.4706	1033.8686	1051.4923	1063.7022	1084.7328	1106.3423	1127.7118	1146.7449	1158.6786	1172.907	1191.6683	1213.5337	1239.3515	1258.1095	1270.7486	1295.2626	1302.4786	1345.0232	1371.8191	1392.2916	1408.7874	1452.0038	1483.4536	1484.2144	1498.2088	1500.0882	1512.523	1535.384	2939.7065	2952.8373	2970.7798	2975.2408	3044.1911	3048.0703	3065.0535	3108.9249	3113.8052	3118.3108	3120.4738	3170.8924	3182.7192	3198.8872
CCOCC1CC2CC12	CCOC[C@H]1C[C@H]2C[C@@H]12	
InChI=1S/C8H14O/c1-2-9-5-7-3-6-4-8(6)7/h6-8H,2-5H2,1H3	InChI=1S/C8H14O/c1-2-9-5-7-3-6-4-8(6)7/h6-8H,2-5H2,1H3/t6-,7+,8+/m0/s1
