18
gdb 98080	3.31235	0.98327	0.81865	3.1634	71.39	-0.2538	-0.0747	0.1791	1420.8075	0.145075	-476.271644	-476.261224	-476.26028	-476.307827	36.015	
C	 0.0557165399	 1.3917918905	 0.0303831076	-0.336303
N	-0.0977289478	-0.0476555263	 0.0656847214	-0.300612
C	-1.2944568169	-0.6651553827	-0.0133671316	 0.334509
O	-2.3816182624	-0.1231775766	-0.1276625925	-0.371244
C	-1.1635245378	-2.1980796915	 0.0724148396	 0.269068
O	-0.080888962	-2.7219713263	 0.2414874304	-0.341246
C	-2.4261636263	-3.0298797972	-0.0493811908	 0.074246
C	-2.9998529548	-2.9340639518	-1.4769180558	-0.413051
O	-2.1554366932	-4.3641332677	 0.3006298168	-0.441743
H	 0.6885301789	 1.6994611053	-0.8087505522	 0.13667
H	-0.936926263	 1.8275192022	-0.09063883	 0.172217
H	 0.5001730718	 1.7646948178	 0.959389656	 0.137293
H	 0.7038216577	-0.6519473198	 0.1761368216	 0.268801
H	-3.1647071264	-2.6067993514	 0.6460577127	 0.116122
H	-2.261045797	-3.2737930679	-2.2096279703	 0.119095
H	-3.869425687	-3.5922741693	-1.540574442	 0.136119
H	-3.3020331159	-1.9106355101	-1.704950955	 0.149494
H	-1.1916785078	-4.441339467	 0.3548393941	 0.290565
55.8578	72.1176	86.0938	140.637	157.0107	215.5542	244.6828	291.3782	344.4354	352.1899	366.6721	426.6215	514.2127	539.8853	637.9783	737.6315	802.8081	829.2252	920.2386	968.2199	1042.1092	1083.0825	1132.9373	1151.9752	1177.2082	1182.0818	1254.0681	1295.2461	1332.8436	1385.5097	1430.2366	1444.0282	1492.5135	1493.7737	1497.0257	1499.2968	1572.2751	1775.0258	1785.1262	3017.1451	3033.9201	3047.7942	3089.0819	3123.559	3152.1796	3152.3412	3612.37	3722.5051
CNC(=O)C(=O)C(C)O	CNC(=O)C(=O)[C@@H](C)O	
InChI=1S/C5H9NO3/c1-3(7)4(8)5(9)6-2/h3,7H,1-2H3,(H,6,9)	InChI=1S/C5H9NO3/c1-3(7)4(8)5(9)6-2/h3,7H,1-2H3,(H,6,9)/t3-/m1/s1
