19
gdb 39134	3.44256	1.3923	1.25312	1.7866	74.09	-0.2295	0.0686	0.2981	1061.2379	0.160621	-422.99094	-422.98343	-422.982485	-423.023242	29.486	
C	-0.1373768448	 1.4060974685	 0.0434375671	-0.337193
C	 1.2409126319	 0.8168362636	-0.0405233596	 0.120159
O	 2.0198451785	 0.7476198847	 1.1281493579	-0.256043
C	 1.2338326798	 0.1202172791	 2.1329497596	-0.167444
C	 0.1665218165	-0.7474894197	 1.4259697613	 0.437708
C	 0.3088801118	-2.2912515598	 1.4613255745	-0.35386
C	-1.0013788096	-2.2594169801	 2.2676172024	-0.069547
O	-1.0539487214	-0.8185534938	 2.2079202101	-0.318885
C	 0.0562419954	-0.1042368818	 0.0623229405	-0.142759
H	-0.4534086201	 1.9018894994	 0.9544696828	 0.129859
H	-0.551848723	 1.8299607343	-0.8646460629	 0.115532
H	 1.8493497084	 0.9308801662	-0.9295630851	 0.102868
H	 1.9031973996	-0.4532754269	 2.7800708429	 0.108618
H	 0.7066605016	 0.8582613853	 2.7540436902	 0.112564
H	 0.2527134793	-2.7815375408	 0.4877811581	 0.111965
H	 1.1852047973	-2.6610068082	 1.9963629119	 0.112899
H	-1.8696333471	-2.7203682261	 1.7815692699	 0.103517
H	-0.9402640794	-2.6226091505	 3.300342339	 0.10358
H	-0.2998963445	-0.7003049935	-0.7693402805	 0.086462
73.7306	112.6877	209.3624	310.5317	368.6486	388.1498	460.2015	508.3992	685.3394	736.1033	786.4341	801.4859	831.4951	865.9585	912.3137	941.307	960.5756	980.0783	989.5275	1014.8936	1024.6563	1044.808	1059.8316	1092.5083	1107.619	1161.432	1163.5496	1177.093	1200.3518	1209.1155	1236.3263	1252.2213	1264.5387	1319.1163	1353.2666	1376.8369	1395.4326	1478.4751	1489.6536	1517.9059	1533.6018	3007.8269	3019.5682	3058.3901	3076.719	3085.9507	3131.2509	3137.7583	3177.2237	3189.384	3224.8477
C1C2OCC3(CCO3)C12	C1[C@H]2OC[C@]3(CCO3)[C@@H]12	
InChI=1S/C7H10O2/c1-2-9-7(1)4-8-6-3-5(6)7/h5-6H,1-4H2	InChI=1S/C7H10O2/c1-2-9-7(1)4-8-6-3-5(6)7/h5-6H,1-4H2/t5-,6+,7+/m0/s1
