20
gdb 71282	2.66735	1.96444	1.43624	1.0716	82.96	-0.2316	0.019	0.2507	976.9543	0.172648	-365.980251	-365.972888	-365.971944	-366.011405	30.757	
C	-0.1245420915	 1.4842292819	-0.0133941411	-0.478954
C	 0.0167629685	-0.0312206688	-0.0212140122	 0.275274
C	-1.2803478496	-0.8072071758	 0.4383806218	-0.294789
C	-0.4754324025	-1.4353734202	 1.5855987689	-0.047015
C	 0.7340417332	-0.6203496858	 1.2311126256	-0.090202
N	 0.7656710091	-2.0595712614	 1.1546985895	-0.091308
C	 0.9216880129	-2.7430372581	-0.1402649436	-0.214855
C	 1.0321638851	-1.8368905209	-1.3388656943	-0.079019
C	 0.6252676484	-0.5701957703	-1.2881169754	-0.101746
H	 0.8483996413	 1.968740341	-0.1554507655	 0.117476
H	-0.7866036041	 1.8216276553	-0.8189195915	 0.116468
H	-0.5400413384	 1.8399937724	 0.9351828963	 0.114275
H	-2.0489937618	-0.1224302019	 0.8085224378	 0.101494
H	-1.7318534837	-1.4890529771	-0.2883679861	 0.097258
H	-0.8690571444	-1.7198135901	 2.555556102	 0.089169
H	 1.4584939545	-0.0943272843	 1.8453981831	 0.084139
H	 1.8255400423	-3.3630551728	-0.075143606	 0.114551
H	 0.0869354423	-3.4468094593	-0.2600103151	 0.117176
H	 1.4895224342	-2.2528958235	-2.232320567	 0.08864
H	 0.7239286142	 0.0908039896	-2.1454724572	 0.081967
159.6605	234.3421	253.3738	297.6214	337.3308	417.8843	472.8656	496.4346	580.3082	625.616	700.2387	705.151	816.5076	845.2967	870.2893	886.9487	912.4968	927.6867	953.3911	974.8476	977.0583	996.4313	1030.3696	1053.1342	1073.2736	1122.9948	1150.7811	1155.5407	1203.0943	1235.9428	1250.1022	1259.5132	1269.9441	1283.8344	1343.0559	1385.4205	1405.9719	1415.2744	1473.6493	1488.6581	1492.2018	1497.4466	1707.5542	3011.3538	3022.4461	3034.5612	3047.6831	3088.0908	3094.985	3101.3946	3148.3904	3152.14	3169.3869	3173.8425
CC12CC3C1N3CC=C2	C[C@]12C[C@@H]3[C@H]1N3CC=C2	
InChI=1S/C8H11N/c1-8-3-2-4-9-6(5-8)7(8)9/h2-3,6-7H,4-5H2,1H3	InChI=1S/C8H11N/c1-8-3-2-4-9-6(5-8)7(8)9/h2-3,6-7H,4-5H2,1H3/t6-,7-,8+,9?/m1/s1
