18
gdb 17441	3.86476	1.74401	1.65282	1.4202	71.5	-0.2008	0.0751	0.2759	877.4594	0.153227	-347.725352	-347.717856	-347.716912	-347.756486	29.886	
C	 0.0414701066	 1.5543608634	 0.0482276749	-0.489229
C	-0.0175568183	 0.0552853502	 0.0410018722	 0.35533
C	-0.9360030061	-0.7581233791	 0.9142789518	-0.35359
C	 0.562440426	-0.9416200918	 1.0266748282	-0.111336
C	 1.2200909876	-1.7401608282	-0.1262910935	-0.130018
C	 0.3231932615	-2.2037846929	-1.2389863888	 0.090435
O	-0.952549253	-2.7786053735	-1.1405327538	-0.416887
C	 0.6062125076	-0.742968299	-1.144059751	-0.153816
H	 1.042797894	 1.9189942906	-0.2116871666	 0.113369
H	-0.6640641202	 1.9851756261	-0.6738673481	 0.119053
H	-0.2125604078	 1.9507821637	 1.0366777039	 0.115544
H	-1.3541077092	-0.1868220336	 1.740078588	 0.098876
H	-1.5829143223	-1.5235715891	 0.5130068054	 0.135094
H	 1.0969270627	-0.7341005508	 1.9453914797	 0.083427
H	 2.2481200169	-2.0781858022	-0.06369201	 0.084113
H	 0.9180289146	-2.6497784219	-2.0418016743	 0.089723
H	-0.8487265005	-3.6412585574	-0.7238727854	 0.284612
H	 1.10438088	-0.2201167345	-1.9528373427	 0.085299
138.6923	215.1442	242.5596	285.9579	294.3978	324.5035	425.6306	530.2594	577.3898	643.2511	700.8285	718.8964	784.4816	834.5391	889.6896	923.7331	947.4022	972.0183	977.9288	996.5194	1017.3665	1050.1622	1075.9301	1098.7268	1107.8566	1139.5781	1216.8276	1231.6327	1267.1422	1296.6299	1301.5386	1345.3756	1393.6906	1418.1718	1467.7485	1483.1502	1489.713	1501.1188	3012.7656	3054.7744	3066.7995	3094.3879	3125.109	3165.4042	3174.2976	3187.0224	3251.9563	3800.1051
CC12CC1C1C(O)C21	C[C@]12C[C@H]1[C@H]1[C@@H](O)[C@@H]21	
InChI=1S/C7H10O/c1-7-2-3(7)4-5(7)6(4)8/h3-6,8H,2H2,1H3	InChI=1S/C7H10O/c1-7-2-3(7)4-5(7)6(4)8/h3-6,8H,2H2,1H3/t3-,4+,5-,6+,7-/m0/s1
