13
gdb 129379	4.07242	1.29057	0.98625	2.3489	68.72	-0.2602	-0.1098	0.1504	1092.5062	0.089558	-445.054589	-445.046997	-445.046053	-445.087324	27.7	
N	-0.0744438743	 1.3033317124	 0.3190404716	-0.519535
C	 0.0803289479	-0.0216699628	 0.0500524391	 0.299418
N	 1.2319218059	-0.5365169305	-0.1762476122	-0.516041
C	-1.2107784221	-0.7870119146	 0.0655139041	 0.355861
C	-1.2916719238	-2.1798566308	 0.1041568366	-0.023725
N	-2.4657362982	-2.7874697823	 0.0744661671	-0.162345
N	-3.5684687175	-2.0390597995	 0.0074497931	-0.046067
N	-3.5068132331	-0.7292404407	 0.0128110253	-0.054069
N	-2.3423650641	-0.0890176824	 0.0465662766	-0.258768
H	 0.7217937717	 1.8977935935	 0.1585848885	 0.26911
H	-0.9989496322	 1.6977542724	 0.2588134018	 0.281079
H	 1.180939944	-1.538075757	-0.3399994132	 0.222194
H	-0.4191265643	-2.8218500378	 0.1747578115	 0.152889
50.703	112.5992	228.2439	311.9547	332.1891	383.2166	415.3342	494.2675	517.8304	610.2317	681.4861	725.8867	792.8029	814.0487	850.8014	894.2079	970.0879	1067.9952	1088.4528	1115.9065	1137.4345	1204.6874	1270.5952	1358.1476	1437.6046	1507.4751	1584.9101	1602.6029	1712.5396	3181.5896	3531.7454	3597.1169	3726.6377
NC(=N)C1=CN=NN=N1	NC(=N)c1cnnnn1	
InChI=1S/C3H4N6/c4-3(5)2-1-6-8-9-7-2/h1H,(H3,4,5)	InChI=1S/C3H4N6/c4-3(5)2-1-6-8-9-7-2/h1H,(H3,4,5)
