18
gdb 40805	3.85372	1.18677	1.01204	2.5888	72.56	-0.2495	0.0235	0.273	1180.9473	0.14923	-439.072348	-439.06454	-439.063595	-439.105257	29.219	
C	 0.3971062386	 1.5085773269	 0.2058562924	-0.173772
O	 1.2523575012	 0.4115496616	-0.1369892221	-0.235128
C	-0.1272753007	 0.1441028049	 0.0917992254	 0.061698
C	-0.4665881243	-0.7218122023	 1.2845861624	 0.10119
C	 0.0651275108	-2.1477805996	 1.1398326026	-0.239031
C	-0.1993042837	-2.9187276756	 2.4359291649	-0.167029
N	 0.1792379991	-2.1698689578	 3.6313882556	-0.263917
C	 0.2964984941	-0.9170825016	 3.5315290081	 0.134143
O	 0.072069161	-0.1064431564	 2.4641184487	-0.240834
H	 0.5629206206	 1.9296450587	 1.1929226448	 0.133564
H	 0.2098823085	 2.2215533108	-0.595626105	 0.114393
H	-0.6907036603	-0.1251384346	-0.8040653933	 0.096367
H	-1.5618907248	-0.7424084897	 1.3899075306	 0.08935
H	-0.4057065693	-2.6355837216	 0.2798939767	 0.103569
H	 1.1408406675	-2.0910725904	 0.9433503118	 0.133714
H	-1.2608328034	-3.1898099002	 2.5170268693	 0.111214
H	 0.3556175654	-3.8629280406	 2.4393535232	 0.11564
H	 0.6175865696	-0.3151021725	 4.3796384537	 0.124869
79.126	89.9844	200.5441	210.1597	262.6045	415.2388	461.1347	492.5754	549.0689	639.4152	768.4481	809.1358	862.7548	878.9324	905.3593	938.0445	962.3428	994.7156	1008.788	1044.9748	1091.5209	1111.8339	1128.239	1160.1617	1168.8785	1170.8628	1232.006	1259.417	1294.4089	1323.4014	1363.4401	1382.2457	1389.8101	1409.3572	1440.2011	1481.4024	1492.5715	1522.5553	1739.2605	2993.4775	3016.83	3046.6601	3063.6141	3089.9557	3097.5731	3101.0528	3160.0399	3200.1758
C1OC1C1CCN=CO1	C1O[C@H]1[C@H]1CCN=CO1	
InChI=1S/C6H9NO2/c1-2-7-4-9-5(1)6-3-8-6/h4-6H,1-3H2	InChI=1S/C6H9NO2/c1-2-7-4-9-5(1)6-3-8-6/h4-6H,1-3H2/t5-,6-/m1/s1
