15
gdb 56129	5.09324	0.70599	0.62481	2.3978	64.24	-0.2602	-0.1031	0.157	1673.6436	0.10733	-494.93845	-494.928374	-494.92743	-494.977568	32.326	
C	-0.1006079272	 1.4375635198	 0.0111804279	-0.479516
C	 0.0700184878	-0.0586598427	 0.0014061868	 0.43243
O	 1.1109756889	-0.6616319618	-0.0150316141	-0.340315
O	-1.1418442401	-0.6748860885	 0.0117892991	-0.219239
C	-1.0987149401	-2.0880092499	 0.0026525862	-0.182444
C	-2.5114516838	-2.6369935094	 0.0118162148	 0.279033
O	-3.5100873321	-1.9713329373	 0.023962903	-0.24329
C	-2.5802661223	-4.1849567245	 0.0036622942	 0.082066
O	-3.6227091963	-4.7762802393	 0.0093560186	-0.19893
H	 0.8786120926	 1.9139957201	 0.0039940153	 0.153047
H	-0.6790629267	 1.7528546729	-0.8616635741	 0.159302
H	-0.661881039	 1.7434806621	 0.8984190185	 0.159189
H	-0.5611861365	-2.4630752626	-0.8803023767	 0.151307
H	-0.5456338168	-2.4739040535	 0.8712360517	 0.151145
H	-1.5996304783	-4.7129485254	-0.0078707012	 0.096214
5.9044	43.6165	64.9681	99.9645	103.8357	195.4103	246.4943	264.6951	345.4265	450.5913	469.5882	604.4836	631.4751	731.5154	845.2906	848.2359	961.6865	996.6271	1042.6304	1049.6886	1066.7923	1132.8092	1244.671	1258.4511	1379.5755	1400.0075	1416.9926	1467.6229	1472.6442	1474.0084	1825.4266	1834.0391	1855.7659	2874.2193	3010.3474	3038.1758	3060.0263	3125.1582	3173.3992
CC(=O)OCC(=O)C=O	CC(=O)OCC(=O)C=O	
InChI=1S/C5H6O4/c1-4(7)9-3-5(8)2-6/h2H,3H2,1H3	InChI=1S/C5H6O4/c1-4(7)9-3-5(8)2-6/h2H,3H2,1H3
