20
gdb 90802	3.11259	1.7785	1.42645	1.1771	80.66	-0.2113	0.0711	0.2823	979.7233	0.173279	-365.945089	-365.937986	-365.937042	-365.976618	29.628	
C	 0.1617885953	 1.5888468214	 0.0188960774	-0.39062
C	-0.0591901462	 0.078290399	-0.035754729	 0.080515
C	 0.3524756024	-0.5234393606	-1.3995233868	-0.261374
C	 1.1528612447	-1.7971322054	-1.2302530039	-0.049098
C	 2.2726573294	-1.8971175846	-0.2336620216	-0.093071
C	 1.0169143017	-2.7335179629	-0.0531196135	-0.102742
C	 0.7127402995	-1.9692097976	 1.2766967354	-0.070083
C	 1.934914069	-1.1278166808	 1.0865979701	-0.072937
N	 0.6087356636	-0.5387258187	 1.1177297966	-0.094698
H	 1.2260404221	 1.8246332478	-0.093910634	 0.115805
H	-0.3804043771	 2.0875119078	-0.7915393006	 0.109045
H	-0.178676649	 1.9963863527	 0.974497048	 0.119209
H	-1.1247330649	-0.1203328124	 0.1301857896	 0.079456
H	-0.5379367471	-0.7154623118	-2.0083834428	 0.098233
H	 0.9621315599	 0.1952724144	-1.9619222362	 0.09582
H	 1.3659999055	-2.3210008228	-2.1592757354	 0.087432
H	 3.2717718784	-2.2283454663	-0.484683784	 0.084303
H	 0.9024513734	-3.8037920397	-0.1634154488	 0.084918
H	 0.307513203	-2.4381360088	 2.1667895732	 0.088563
H	 2.6777460663	-0.7920870207	 1.8011699663	 0.091325
59.2362	236.809	279.7132	345.8507	416.2207	488.9785	545.8846	565.4464	680.9772	721.3391	730.825	745.0388	785.6747	855.2594	874.7012	906.8931	910.0112	929.2181	969.047	979.6497	990.3775	1027.2001	1049.8568	1055.0281	1072.5904	1086.8752	1127.4103	1139.6325	1166.2027	1236.2613	1256.4268	1267.248	1270.5666	1294.3805	1333.3966	1351.9844	1372.5819	1385.1188	1405.9847	1447.1202	1487.5039	1496.3879	1499.7266	3018.5423	3023.4443	3031.5619	3060.4378	3098.7631	3117.9968	3133.1008	3161.443	3174.6383	3191.5528	3202.5433
CC1CC2C3C2C2C3N12	C[C@H]1C[C@H]2[C@@H]3[C@H]2[C@H]2[C@@H]3N12	
InChI=1S/C8H11N/c1-3-2-4-5-6(4)8-7(5)9(3)8/h3-8H,2H2,1H3	InChI=1S/C8H11N/c1-3-2-4-5-6(4)8-7(5)9(3)8/h3-8H,2H2,1H3/t3-,4-,5+,6-,7+,8-,9?/m0/s1
