22
gdb 98835	3.06259	1.04302	0.92434	1.9266	83.45	-0.1999	-0.0144	0.1855	1402.6911	0.192469	-404.344503	-404.334293	-404.333348	-404.38047	36.532	
C	-0.5758064095	 1.9533823686	-0.2500437405	-0.37802
C	-0.7760195112	 0.4881166984	-0.6259425932	-0.28555
C	-1.8962372958	-0.1961621619	 0.1460363808	 0.377556
O	-2.6448623099	 0.4168347826	 0.8770538724	-0.319582
C	-2.0014169295	-1.7103834762	-0.0320024436	-0.084277
C	-1.4871757785	-2.45037517	 1.2500690892	-0.238459
C	-2.9804123162	-2.6835843828	 1.5849408411	-0.152565
N	-3.3091755469	-2.3422119729	 0.1925173552	-0.053229
C	-4.5629101128	-1.7015791537	-0.1455181176	-0.332132
H	 0.2141961481	 2.4060702773	-0.8556244531	 0.109962
H	-1.4981615127	 2.519851155	-0.3989169328	 0.134918
H	-0.3020426799	 2.0531121978	 0.8039062955	 0.12748
H	-1.0105479321	 0.3814897385	-1.6951725495	 0.126122
H	 0.1436929368	-0.0970434249	-0.4835968062	 0.120242
H	-1.525441441	-2.0013869822	-0.977870269	 0.070671
H	-0.9443157655	-3.3648001919	 1.0086934472	 0.114226
H	-0.9117221153	-1.8542285484	 1.9589343862	 0.112057
H	-3.2795083901	-3.6936480804	 1.8894692629	 0.093967
H	-3.3599783054	-1.9600297389	 2.3206581797	 0.105219
H	-4.7503659029	-0.7676193661	 0.4030796796	 0.125986
H	-4.5815667941	-1.4818983631	-1.2193288517	 0.110993
H	-5.3816822156	-2.4010652549	 0.0585571174	 0.114416
35.4309	76.4621	121.2986	164.2562	185.4768	206.6748	235.4909	257.0634	307.285	331.7214	409.8799	553.8845	652.8315	669.8948	760.8349	805.0992	832.8219	909.1763	926.3829	966.7178	994.7475	1008.2308	1041.8347	1069.234	1104.2035	1123.119	1133.587	1174.5873	1198.0063	1215.878	1254.7153	1263.6166	1272.4274	1284.9795	1339.8179	1350.9105	1380.7514	1413.6997	1446.0913	1449.6752	1478.8095	1483.2284	1492.5857	1497.6322	1514.7086	1520.9446	1793.5649	2994.09	2998.7057	3006.7427	3015.5206	3036.682	3044.1851	3050.9548	3060.9897	3085.0634	3087.34	3119.9361	3128.6889	3145.1405
CCC(=O)C1CCN1C	CCC(=O)[C@H]1CCN1C	
InChI=1S/C7H13NO/c1-3-7(9)6-4-5-8(6)2/h6H,3-5H2,1-2H3	InChI=1S/C7H13NO/c1-3-7(9)6-4-5-8(6)2/h6H,3-5H2,1-2H3/t6-/m1/s1
