23
gdb 119894	3.84853	0.79216	0.70782	1.4579	88.69	-0.2275	0.0308	0.2582	1663.4785	0.207086	-388.311401	-388.30186	-388.300915	-388.346327	35.797	
O	-0.0958987642	 1.4937326759	-0.1258524625	-0.418935
C	 0.0332248136	 0.0824843119	-0.0370564464	-0.062665
C	-1.3752529993	-0.5073876673	 0.0742921098	-0.278064
C	-1.3878373379	-2.0177323966	 0.0813375152	 0.30675
C	-1.5311278443	-2.7144634191	 1.2125390016	-0.146159
C	-1.565850551	-4.218791865	 1.2960885128	-0.238735
C	-1.7612303305	-4.8742206343	-0.0784341471	-0.193856
C	-0.8803086301	-4.1940734661	-1.131752725	-0.198466
C	-1.2358619426	-2.7069775675	-1.2596332163	-0.284107
H	 0.7860226393	 1.8736804674	-0.1747086376	 0.284507
H	 0.5473434561	-0.3244526756	-0.9223795457	 0.08432
H	 0.62043468	-0.214077326	 0.8460366851	 0.087925
H	-1.83625178	-0.1149531007	 0.9864666608	 0.105873
H	-1.962413548	-0.1250558008	-0.7711237821	 0.104112
H	-1.6354082584	-2.1742850426	 2.1525385516	 0.071985
H	-0.633228293	-4.5806925329	 1.7560084736	 0.102892
H	-2.3642319921	-4.5313961612	 1.9814560231	 0.099065
H	-1.5437087721	-5.9462221572	-0.0222963123	 0.088905
H	-2.81348491	-4.7807589028	-0.377312076	 0.096847
H	 0.1731381429	-4.2904114018	-0.8372728659	 0.095055
H	-0.9818692115	-4.6908450131	-2.1028341794	 0.089406
H	-2.1750477217	-2.592408064	-1.8228280587	 0.105574
H	-0.4779570152	-2.1898550106	-1.8617958785	 0.09777
66.0711	81.8073	92.3912	188.5681	255.1549	256.6958	321.7551	327.8566	334.1351	452.8776	505.3588	528.5899	656.5979	779.3928	803.312	821.8348	856.9773	870.3341	916.6611	942.3577	979.51	1009.4291	1040.2369	1069.1328	1073.3371	1100.974	1108.4112	1156.5536	1168.9683	1196.2689	1221.8232	1239.8924	1267.1908	1294.0736	1305.1862	1334.0034	1343.2453	1368.9497	1373.3545	1382.4196	1400.4005	1453.3787	1472.6241	1479.3761	1488.0497	1489.9277	1500.5824	1526.2992	1735.3944	2968.7978	2988.8924	2989.8518	2996.3311	3016.0639	3020.4435	3024.9264	3036.6637	3039.9665	3066.2739	3071.0372	3081.0369	3132.4533	3829.6045
OCCC1=CCCCC1	OCCC1=CCCCC1	
InChI=1S/C8H14O/c9-7-6-8-4-2-1-3-5-8/h4,9H,1-3,5-7H2	InChI=1S/C8H14O/c9-7-6-8-4-2-1-3-5-8/h4,9H,1-3,5-7H2
