15
gdb 5583	3.30644	1.91388	1.29251	1.626	63.54	-0.1943	0.0442	0.2386	922.1396	0.120831	-396.002866	-395.995276	-395.994332	-396.034879	27.934	
C	 0.3256939435	 1.1463784259	-0.3728137458	-0.318129
N	-0.3272060498	-0.0331254324	 0.2124180819	-0.405083
C	 0.4357410916	-0.6959315223	 1.1999919754	 0.124867
C	 0.8553218909	-1.9940193567	 1.0856930701	 0.354433
O	 0.674869703	-2.9149718367	 0.1184496229	-0.437358
N	 1.5639697444	-2.2768540837	 2.2209319762	-0.308741
C	 1.5458950379	-1.1294962534	 2.9850237425	-0.008167
N	 0.8801600885	-0.1679768111	 2.399958649	-0.290902
H	 1.2378095076	 0.8317547648	-0.889001441	 0.121298
H	-0.3446256205	 1.6000436905	-1.109459774	 0.11004
H	 0.6009586616	 1.9049923162	 0.3726113066	 0.125393
H	-1.2293086614	 0.2415895245	 0.5896689778	 0.229573
H	 0.1332309913	-2.4707237026	-0.5502664065	 0.305741
H	 1.9978036376	-3.1574996904	 2.4406699105	 0.271097
H	 2.0366726638	-1.0797425127	 3.9448538044	 0.125938
76.3634	163.1985	187.5729	262.2614	291.2749	387.9292	473.8543	482.1351	523.0978	641.3547	676.2157	709.5441	753.6987	757.3903	831.794	947.6045	1047.4163	1085.4113	1135.4631	1148.035	1175.5907	1208.8867	1298.4344	1327.3258	1408.518	1452.4146	1466.4791	1486.9796	1507.0677	1520.4779	1559.9833	1682.1845	3007.1813	3077.0946	3108.4407	3254.1374	3498.3276	3668.9363	3748.8208
CNC1=C(O)NC=N1	CNc1c(O)[nH]cn1	
InChI=1S/C4H7N3O/c1-5-3-4(8)7-2-6-3/h2,5,8H,1H3,(H,6,7)	InChI=1S/C4H7N3O/c1-5-3-4(8)7-2-6-3/h2,5,8H,1H3,(H,6,7)
