19
gdb 92877	2.67239	1.38534	1.09071	4.1521	85.32	-0.2418	-0.0631	0.1787	1165.6158	0.160637	-385.923986	-385.915661	-385.914717	-385.957092	31.854	
C	 0.081384907	 1.58693373	 0.189420661	-0.38863
C	-0.0358672254	 0.0633099855	-0.0276807263	-0.038095
C	 0.4883612794	-0.3816026826	-1.4051481392	-0.278604
C	 1.9464144624	-0.1406761501	-1.6884044647	-0.057048
C	 2.9952160451	-0.3620912794	-0.8889707929	-0.138363
C	 3.0269256335	-0.9400465906	 0.4756629768	 0.340478
O	 4.1086219787	-1.2750533152	 0.9393550943	-0.341763
C	 1.8185251331	-1.1160716182	 1.3185643631	-0.138982
C	 0.5653962557	-0.6838508788	 1.1354898757	-0.069518
H	 1.1271343766	 1.9049039099	 0.1699799175	 0.134158
H	-0.4600771936	 2.1284761176	-0.5935386386	 0.114803
H	-0.3415948291	 1.8776336323	 1.1555602624	 0.120718
H	-1.1073875615	-0.1756051033	-0.0269083783	 0.086164
H	 0.2795474047	-1.4538332648	-1.5303385956	 0.126118
H	-0.1046852654	 0.1272446312	-2.1733871258	 0.106813
H	 2.1662726103	 0.2250106356	-2.6898069403	 0.105131
H	 3.9968503412	-0.1770939962	-1.2673291713	 0.106715
H	 2.0659188008	-1.6164034982	 2.2512027503	 0.106037
H	-0.1271807537	-0.8550036049	 1.9588705018	 0.103867
54.8367	136.2976	218.3648	242.2665	303.3579	323.1552	374.7837	395.3157	455.7522	511.1451	659.7502	681.7	744.0881	767.2071	799.6395	850.7544	888.0011	906.6958	919.9098	991.9977	1030.9825	1040.6811	1048.9957	1099.4307	1146.1476	1205.3497	1246.4555	1258.4434	1311.967	1333.2389	1352.5739	1397.6299	1408.7853	1422.7595	1429.4303	1470.3514	1496.5297	1501.4123	1691.9931	1703.1783	1723.5801	3005.6392	3018.9575	3037.2803	3058.2819	3105.9417	3122.4698	3130.5627	3140.2112	3171.2354	3176.0628
CC1CC=CC(=O)C=C1	C[C@H]1CC=CC(=O)C=C1	
InChI=1S/C8H10O/c1-7-3-2-4-8(9)6-5-7/h2,4-7H,3H2,1H3	InChI=1S/C8H10O/c1-7-3-2-4-8(9)6-5-7/h2,4-7H,3H2,1H3/t7-/m0/s1
