20
gdb 92250	2.68853	1.69733	1.31628	1.7023	78.99	-0.2114	0.0656	0.277	1038.2504	0.171705	-403.07907	-403.071261	-403.070317	-403.111161	30.785	
C	-0.3146170417	 1.4583283477	-0.0825196105	-0.335905
N	 0.0866575229	 0.0686191482	-0.0133131411	-0.146388
C	 1.2053193942	-0.4232546449	-0.8587649092	-0.191563
C	 1.6974324641	-1.3165839585	 0.3197553358	-0.091888
C	 2.9193570104	-0.7938348657	 1.1237214746	-0.256621
C	 1.9611030984	 0.0828613372	 1.9663261243	 0.047552
O	 1.4456484434	-0.5939368247	 3.1381129495	-0.292704
C	 0.1655953231	-0.8823048519	 2.5167133182	-0.170286
C	 0.718069564	-0.4578648515	 1.1666430399	 0.341568
H	 0.521626768	 2.1631878089	 0.0754715511	 0.095974
H	-0.7546617609	 1.6675138325	-1.0630178717	 0.123341
H	-1.0783143427	 1.6599837835	 0.6756156131	 0.124876
H	 0.8783390684	-0.9315941678	-1.7716684733	 0.105501
H	 1.9291230807	 0.3609062101	-1.1320275053	 0.087887
H	 1.5638935063	-2.3898966839	 0.186269397	 0.075423
H	 3.4307408335	-1.549438339	 1.7249643713	 0.113161
H	 3.6597796575	-0.2443293507	 0.5338485308	 0.096946
H	 2.2119367327	 1.128259458	 2.1691697004	 0.070564
H	-0.1344652036	-1.9300297539	 2.6373248428	 0.104391
H	-0.6273210989	-0.2317997435	 2.9141193822	 0.098171
119.9719	149.8307	201.0553	242.394	305.4398	376.5458	402.6502	449.1182	540.0654	626.4213	693.537	782.2573	831.8298	848.6407	882.6023	934.5579	939.8445	983.7391	993.2246	1019.4892	1047.2505	1088.7348	1102.6161	1119.3797	1139.0808	1161.5066	1168.2014	1186.4349	1204.1232	1228.2221	1245.7447	1262.243	1279.8764	1312.2946	1314.4722	1332.7133	1390.7571	1451.2099	1461.1727	1486.3031	1501.3386	1515.8918	1520.8803	2942.6989	2977.2366	2992.7986	3047.6444	3054.0807	3059.5319	3061.2096	3064.5865	3102.3796	3106.9628	3117.1745
CN1CC2CC3OCC123	CN1C[C@H]2C[C@@H]3OC[C@]123	
InChI=1S/C7H11NO/c1-8-3-5-2-6-7(5,8)4-9-6/h5-6H,2-4H2,1H3	InChI=1S/C7H11NO/c1-8-3-5-2-6-7(5,8)4-9-6/h5-6H,2-4H2,1H3/t5-,6+,7+/m1/s1
