21
gdb 115902	3.31508	1.25915	1.09344	2.4954	77.86	-0.2365	0.0761	0.3126	1193.4389	0.184181	-424.205331	-424.197155	-424.19621	-424.238124	31.812	
C	 0.06488462	 1.5957501629	-0.3667523112	-0.237321
O	-0.3287487985	 0.2440953091	-0.4100851052	-0.252648
C	 0.6193403621	-0.6227914975	-1.0072982794	 0.144523
C	 1.8816269781	-0.8136268207	-0.1274179018	-0.215783
C	 2.541014566	-2.2053688287	-0.3067578501	-0.240165
C	 1.4575711444	-3.2279958303	-0.6737302699	 0.103943
C	 0.8402858112	-2.90874985	-2.049728526	-0.251438
C	-0.0498270032	-1.9895853178	-1.19461057	 0.064424
O	 0.2069198267	-2.831676114	-0.0335905246	-0.294095
H	 0.9268079375	 1.7641291529	 0.2948723967	 0.107263
H	 0.3212146479	 1.9758248523	-1.3691772562	 0.099381
H	-0.7837281814	 2.166528573	 0.0185868577	 0.127216
H	 0.8881590818	-0.2248066949	-2.0016677765	 0.058666
H	 2.6100198556	-0.0146521	-0.2899035588	 0.092158
H	 1.5279692111	-0.7324215376	 0.9035189762	 0.12812
H	 3.3103740244	-2.19654174	-1.0881878433	 0.098094
H	 3.0404874725	-2.4893172789	 0.6249116774	 0.105668
H	 1.7315197496	-4.2605914919	-0.4426286576	 0.075385
H	 1.4779684959	-2.4589665691	-2.815182713	 0.093487
H	 0.2846925472	-3.7514836215	-2.4637013517	 0.109363
H	-1.115503659	-1.8886293771	-1.4103683927	 0.083757
92.6616	118.5725	201.0064	212.4631	291.4341	365.297	384.2887	419.7715	469.6631	585.0442	639.5207	774.2082	819.6003	847.6519	891.0182	914.2556	931.9286	944.097	974.6073	999.5503	1017.9005	1050.5584	1088.5471	1113.0689	1140.0341	1147.1417	1179.9593	1183.8025	1217.4517	1226.445	1248.8201	1262.3367	1298.8095	1322.7271	1336.2168	1351.2359	1353.991	1373.1864	1405.6625	1477.5025	1480.1119	1487.4897	1492.836	1500.3179	1510.9661	2944.2382	2971.3093	3024.8528	3034.2997	3060.8665	3063.0317	3073.2675	3081.8278	3096.6775	3109.948	3111.5322	3130.4735
COC1CCC2CC1O2	CO[C@H]1CC[C@@H]2C[C@H]1O2	
InChI=1S/C7H12O2/c1-8-6-3-2-5-4-7(6)9-5/h5-7H,2-4H2,1H3	InChI=1S/C7H12O2/c1-8-6-3-2-5-4-7(6)9-5/h5-7H,2-4H2,1H3/t5-,6+,7-/m1/s1
