23
gdb 97925	3.66259	0.65396	0.62909	0.1814	95.38	-0.2403	0.0574	0.2977	1945.7204	0.203715	-351.129639	-351.118805	-351.117861	-351.168188	39.124	
C	-0.5958131266	 1.363914144	-0.4215899176	-0.362568
C	 0.294936405	 0.2126507982	 0.0801056419	-0.312583
C	 1.083458162	-0.4065039909	-0.9811070898	 0.078585
C	 1.7278573563	-0.8932123075	-1.875586892	 0.062017
C	 2.5015280192	-1.507792556	-2.9532601039	-0.432984
C	 2.0331996323	-2.9171975398	-3.3205711958	 0.393494
C	 2.1604949539	-3.9385685268	-2.2084922315	-0.457801
C	 0.8744969898	-3.0343342998	-4.2774007487	-0.286999
C	 2.2755995259	-3.3671405247	-4.7404051544	-0.317027
H	 0.009712869	 2.1550293433	-0.8722816576	 0.126338
H	-1.3005663131	 1.0078059855	-1.1779644474	 0.126412
H	-1.1665623851	 1.7955170399	 0.4063028897	 0.11166
H	 0.9661142725	 0.5858478992	 0.8646480111	 0.125394
H	-0.3317217185	-0.5496601142	 0.5610764771	 0.125721
H	 2.4534315786	-0.8691007799	-3.8446957769	 0.11821
H	 3.5623217151	-1.5445646051	-2.6664644895	 0.121091
H	 1.5826962808	-3.6329422538	-1.330123582	 0.128371
H	 1.79698896	-4.9191993452	-2.5305222019	 0.109119
H	 3.2056971663	-4.0556074196	-1.8971110153	 0.110737
H	 0.1747630626	-3.8512509808	-4.1361273315	 0.107548
H	 0.4184102614	-2.121179649	-4.6452962894	 0.110957
H	 2.7633924102	-2.6805384517	-5.4250177388	 0.106285
H	 2.5251915126	-4.4095428552	-4.9089250259	 0.108022
6.4089	50.2862	82.3226	135.3976	195.7441	224.5963	276.2678	299.0775	323.9467	344.7508	359.2668	394.1672	489.112	523.3738	722.5947	746.0459	783.7423	785.2111	871.1759	899.378	927.4507	955.3689	968.3008	977.661	1043.0242	1069.9318	1077.9272	1079.1236	1104.2215	1123.3429	1162.2039	1186.2597	1210.5718	1286.4347	1308.2849	1332.5258	1351.4541	1373.733	1407.7026	1419.0874	1464.0742	1471.2204	1476.3028	1490.627	1494.3719	1500.6428	1505.7924	1512.3544	2363.6115	3001.7947	3016.1568	3023.9458	3037.5645	3042.2429	3042.3006	3086.7437	3104.7895	3114.9962	3121.7538	3124.0934	3129.9002	3201.6229	3216.3592
CCC#CCC1(C)CC1	CCC#CCC1(C)CC1	
InChI=1S/C9H14/c1-3-4-5-6-9(2)7-8-9/h3,6-8H2,1-2H3	InChI=1S/C9H14/c1-3-4-5-6-9(2)7-8-9/h3,6-8H2,1-2H3
