12
gdb 8612	2.13821	2.10952	1.48952	1.4363	67.95	-0.2719	-0.0125	0.2593	896.0475	0.078271	-344.068571	-344.059848	-344.058904	-344.101239	31.874	
O	-0.0567618699	 1.4302683991	 0.0104344061	-0.414177
C	-0.0017260093	 0.0013961866	 0.0021598442	-0.221217
C	-1.393666796	-0.4778558416	 0.0128705183	 0.394486
C	-2.5207373361	-0.8871907281	 0.0215050815	-0.444763
C	 0.6876215083	-0.4858401488	-1.2117929227	 0.345161
C	 1.2712157168	-0.8425722025	-2.1983925022	-0.461458
C	 0.7106661192	-0.4989091153	 1.197343183	 0.345126
C	 1.3131176808	-0.8662652325	 2.1685913313	-0.461445
H	 0.8565621409	 1.7431565741	 0.0035187022	 0.292527
H	-3.5208882739	-1.2452186404	 0.0287481104	 0.208317
H	 1.7795118878	-1.1668631732	-3.0731556034	 0.208721
H	 1.8377746614	-1.1998065875	 3.0301170814	 0.208723
121.3587	123.9064	151.3006	213.483	232.4121	280.4411	333.5306	499.7964	505.6164	545.2148	553.9478	565.2015	649.4013	653.6147	654.7292	674.3861	674.3943	677.2279	690.9036	1032.1767	1045.519	1082.5395	1372.2826	2237.6582	2240.208	2254.0753	3499.6298	3500.025	3501.3069	3790.7001
OC(C#C)(C#C)C#C	OC(C#C)(C#C)C#C	
InChI=1S/C7H4O/c1-4-7(8,5-2)6-3/h1-3,8H	InChI=1S/C7H4O/c1-4-7(8,5-2)6-3/h1-3,8H
