20
gdb 90473	2.47357	1.59319	1.29895	1.5101	79.72	-0.2355	-0.0358	0.1997	1072.4351	0.171762	-403.141772	-403.133462	-403.132518	-403.174556	32.051	
C	 0.1575172837	 1.5622248611	-0.5966712512	-0.41523
C	 0.1570763904	 0.0351728263	-0.5606201484	 0.058537
C	 1.1506363539	-0.6355605495	-1.5474543564	-0.257925
C	 1.5300591817	-1.9331542891	-0.8467948565	-0.042289
C	 2.5971881939	-1.9340437446	 0.2328604858	-0.09566
C	 3.5513462233	-0.8118754387	 0.3767790908	 0.138317
O	 3.2995457943	 0.3729464688	 0.3160414863	-0.279225
N	 1.1468304959	-1.8914640963	 0.5533624722	-0.11038
C	 0.5379681305	-0.562503084	 0.8166618033	-0.182838
H	 1.155001297	 1.9463091549	-0.363115679	 0.144394
H	-0.1336790693	 1.9369501265	-1.5836705793	 0.109903
H	-0.5483266682	 1.9753842692	 0.1321110298	 0.111097
H	-0.8492166299	-0.3253479295	-0.8095212616	 0.075171
H	 0.6938179219	-0.8396552045	-2.5193282441	 0.10097
H	 2.0178063543	 0.0081062405	-1.7160173468	 0.127489
H	 1.3790967336	-2.8775893785	-1.3643413049	 0.100814
H	 3.043121526	-2.8954694967	 0.479958765	 0.097408
H	 4.5960752186	-1.154244	 0.5514194115	 0.085529
H	 1.223357129	 0.0918095297	 1.35828739	 0.12864
H	-0.3412008706	-0.7289680656	 1.4458759337	 0.105278
76.7148	160.2539	206.7677	225.867	251.0871	315.6496	377.8737	411.9224	418.7716	563.887	666.444	736.222	765.2939	819.4294	837.8756	887.9712	899.8832	941.9212	952.3995	964.8666	989.1083	1062.7219	1078.8438	1096.0581	1123.2171	1153.9494	1165.304	1203.7305	1260.0923	1285.6697	1302.3515	1322.8519	1349.5212	1363.8342	1385.4171	1394.8816	1410.6168	1434.8138	1490.2858	1497.6943	1505.1624	1507.5784	1785.6945	2877.6698	3016.6322	3031.8538	3060.3486	3064.6992	3093.4156	3105.7608	3114.0985	3118.5806	3124.71	3136.3171
CC1CC2C(C=O)N2C1	C[C@H]1C[C@H]2[C@@H](C=O)N2C1	
InChI=1S/C7H11NO/c1-5-2-6-7(4-9)8(6)3-5/h4-7H,2-3H2,1H3	InChI=1S/C7H11NO/c1-5-2-6-7(4-9)8(6)3-5/h4-7H,2-3H2,1H3/t5-,6-,7+,8?/m0/s1
