23
gdb 119015	1.77244	1.21421	0.8326	0.5572	91.19	-0.2591	0.0529	0.312	1507.5943	0.203523	-351.118125	-351.107631	-351.106687	-351.154148	39.155	
C	-1.790883347	 1.5186176559	-1.3918961878	-0.379571
C	-1.7374827469	-0.0116556995	-1.3731199946	-0.168281
C	-1.5858345499	-0.5801189264	 0.045071342	-0.2553
C	-1.6156673664	-2.0987875086	 0.1289420473	 0.387749
C	-0.4757297579	-2.8328332286	-0.5827422871	-0.4388
C	 0.8479944506	-2.4879855126	-0.0700722536	 0.324426
C	 1.9308928117	-2.1905531867	 0.3593175972	-0.46208
C	-2.1360426618	-2.7253855359	 1.3978428518	-0.308074
C	-2.9602593609	-2.7862985935	 0.1323464475	-0.316472
H	-1.8971545601	 1.9023795817	-2.4113874798	 0.10998
H	-2.6374499462	 1.8928154315	-0.8051151349	 0.111679
H	-0.8787017413	 1.9515096687	-0.9665634521	 0.116379
H	-2.6479693162	-0.4187899567	-1.831626042	 0.094822
H	-0.9019871713	-0.3479379613	-1.9993219925	 0.100659
H	-0.6470288816	-0.2170131789	 0.4832914169	 0.109303
H	-2.3925127523	-0.1821707686	 0.6742764284	 0.086904
H	-0.6293624694	-3.9145969877	-0.483559522	 0.123363
H	-0.511082304	-2.6233573689	-1.6596654211	 0.13013
H	 2.8905993913	-1.9367016088	 0.735729882	 0.193832
H	-1.6682814897	-3.6396919417	 1.7478473187	 0.1121
H	-2.4671783081	-2.0661760636	 2.1932774696	 0.10996
H	-3.8480638151	-2.1655241962	 0.0698750705	 0.11005
H	-3.0570128875	-3.7432633039	-0.3702937245	 0.107244
41.2247	79.8921	109.5434	144.7621	173.2963	248.7491	287.8303	317.3953	339.7528	363.6749	386.7358	435.6132	551.1217	616.0648	635.4408	735.7492	758.0406	784.5053	855.0291	888.4121	908.392	913.2925	943.6705	976.0848	987.6716	1005.0515	1051.9059	1054.952	1081.7814	1109.1563	1133.0713	1186.6372	1209.5154	1253.9568	1303.2462	1312.1003	1326.9977	1341.7184	1375.8229	1404.0581	1413.4642	1466.0123	1472.8281	1480.9906	1492.6509	1500.1503	1508.9447	1510.3587	2235.127	3013.0238	3019.9793	3023.8894	3029.2251	3042.5052	3050.7252	3064.2827	3096.3387	3101.5246	3125.5269	3130.5073	3202.4617	3217.0228	3506.6634
CCCC1(CC#C)CC1	CCCC1(CC#C)CC1	
InChI=1S/C9H14/c1-3-5-9(6-4-2)7-8-9/h1H,4-8H2,2H3	InChI=1S/C9H14/c1-3-5-9(6-4-2)7-8-9/h1H,4-8H2,2H3
