21
gdb 64361	1.86001	1.79944	1.4519	1.7885	73.22	-0.2427	0.0573	0.3	1062.8654	0.181003	-461.369287	-461.359754	-461.35881	-461.40303	37.113	
C	-0.4222664994	 1.4606390772	-0.0132613947	-0.486501
C	 0.0728690894	 0.018972611	-0.0016064752	 0.312862
O	-1.0375090689	-0.8688698397	-0.2220327942	-0.480367
C	 1.1111953069	-0.2992705466	-1.1028002342	-0.096997
O	 2.2341366145	-0.9185928727	-0.4806151423	-0.254493
C	 1.7733771529	-1.4957667969	 0.7272944741	-0.130794
C	 0.8058062026	-0.4491522979	 1.3171160725	 0.335439
C	 1.576247621	 0.6533411233	 2.0345268983	-0.42313
O	-0.1053183299	-0.9939050777	 2.2506418993	-0.487077
H	 0.4018212654	 2.1740341291	 0.0601091032	 0.13071
H	-0.9665763008	 1.6592002929	-0.9419165676	 0.125949
H	-1.1002212014	 1.6453045831	 0.829009869	 0.121657
H	-1.7818552878	-0.5246405853	 0.2843893039	 0.281289
H	 0.6461395934	-0.9706517197	-1.8369449976	 0.108412
H	 1.4691157553	 0.5950018997	-1.620868695	 0.104103
H	 1.2348328335	-2.4412888095	 0.5462005129	 0.085736
H	 2.63904277	-1.6994643667	 1.3622000831	 0.108256
H	 2.3470445064	 1.0714635099	 1.3817872523	 0.128232
H	 0.9123331147	 1.4556610695	 2.3651263317	 0.118932
H	 2.0625022645	 0.2337836091	 2.9199392717	 0.12496
H	-0.6250576422	-1.6422659623	 1.7579830187	 0.272821
52.73	180.5912	214.3639	248.3984	254.0896	286.7741	302.5566	350.4114	358.4982	372.002	416.0566	485.5175	535.2312	591.8674	617.3868	632.4633	692.3271	882.7078	904.841	945.6577	956.5527	962.879	980.4761	992.8676	1092.9554	1102.6203	1136.287	1157.8544	1174.6632	1217.6415	1220.7588	1244.209	1269.3828	1338.4218	1373.8224	1387.2631	1401.9489	1413.2131	1426.0327	1483.8945	1490.1045	1497.9341	1501.2387	1510.4708	1515.9376	2965.3852	3015.5932	3028.0917	3048.1735	3082.7108	3095.8306	3099.8773	3117.8979	3124.5192	3131.3545	3765.579	3802.1135
CC1(O)COCC1(C)O	C[C@@]1(O)COC[C@]1(C)O	
InChI=1S/C6H12O3/c1-5(7)3-9-4-6(5,2)8/h7-8H,3-4H2,1-2H3	InChI=1S/C6H12O3/c1-5(7)3-9-4-6(5,2)8/h7-8H,3-4H2,1-2H3/t5-,6+
