16
gdb 54239	2.35952	1.54268	1.28827	1.9338	65.99	-0.2491	-0.0335	0.2156	1033.6123	0.12292	-475.063399	-475.054613	-475.053669	-475.09689	32.825	
N	 0.0603129739	 1.3107680736	-0.2327147659	-0.528216
C	 0.1000899421	-0.0302583232	-0.0637598007	 0.368053
O	 1.1176719702	-0.6779559557	 0.1095521434	-0.376336
C	-1.2889171059	-0.6945464451	-0.070533424	 0.206521
O	-2.2880417096	 0.1794646984	-0.5270670991	-0.491332
C	-1.1992087598	-2.1589600166	-0.6286013969	-0.271929
C	-1.0370075099	-2.705885707	 0.8289030058	-0.326061
C	-1.6243248356	-1.3788478757	 1.2766045052	 0.346962
O	-2.3941892823	-1.016474978	 2.1216137137	-0.315531
H	 0.9282660511	 1.816505552	-0.289267074	 0.265843
H	-0.8102496875	 1.7480464817	-0.4841642902	 0.274364
H	-2.9526604208	 0.2284357009	 0.1750850372	 0.298107
H	-2.1475158955	-2.4477992516	-1.0842020461	 0.120291
H	-0.3632781302	-2.3457984835	-1.3002605265	 0.134165
H	-1.5731084532	-3.6061849737	 1.1326960333	 0.127613
H	 0.0220366632	-2.7736811765	 1.088923965	 0.167485
64.0446	107.4148	181.8561	237.8438	278.5348	309.6245	348.2434	399.272	437.2638	461.9559	513.966	598.026	623.4999	679.1912	721.1878	759.9293	778.4506	881.9225	909.0528	975.0211	1041.717	1094.8401	1099.2234	1124.8186	1190.3564	1203.1533	1236.6803	1272.1916	1343.1998	1382.577	1432.4984	1466.25	1584.8702	1786.4173	1870.6646	3078.912	3092.3823	3145.0263	3169.1733	3600.004	3734.0761	3740.3292
NC(=O)C1(O)CCC1=O	NC(=O)[C@@]1(O)CCC1=O	
InChI=1S/C5H7NO3/c6-4(8)5(9)2-1-3(5)7/h9H,1-2H2,(H2,6,8)	InChI=1S/C5H7NO3/c6-4(8)5(9)2-1-3(5)7/h9H,1-2H2,(H2,6,8)/t5-/m1/s1
