19
gdb 55027	3.24188	1.09086	0.89803	2.9779	78.07	-0.2428	0.0085	0.2513	1327.2297	0.158178	-419.177777	-419.168387	-419.167443	-419.213225	33.308	
C	 0.1860278264	 1.3617039189	-0.0718355329	-0.476679
C	 0.0995250749	-0.1534974807	-0.054852044	 0.378163
O	 0.4538431268	-0.8364771147	 0.879918925	-0.339212
N	-0.5068473289	-0.7005704631	-1.1843892812	-0.083601
C	-0.1335395509	-0.53184441	-2.5720143	-0.272981
C	-0.0915270682	-1.8828038785	-1.9008479751	-0.025106
C	 1.2185104871	-2.541470631	-1.6120529058	 0.031626
C	 1.2445413129	-3.8800970967	-0.9798426731	-0.233381
N	 1.6168151321	-3.7226452702	-2.3975423069	-0.330085
H	 0.987659639	 1.6861503892	-0.7449193217	 0.138683
H	-0.7454292417	 1.8053853662	-0.4334023669	 0.142135
H	 0.4081421943	 1.7163266439	 0.9344635124	 0.148663
H	-0.9352357352	-0.2833359262	-3.2632110042	 0.125747
H	 0.824281847	-0.063437991	-2.791548437	 0.128839
H	-0.9015201321	-2.5801926948	-2.1205864217	 0.095572
H	 2.0366098607	-1.8560706825	-1.4040679822	 0.097027
H	 2.0607346043	-4.1469466124	-0.3160114876	 0.129046
H	 0.2911325553	-4.3415006319	-0.7353008852	 0.116117
H	 0.8468272461	-4.0192950245	-2.9941931519	 0.229427
55.4246	62.1947	85.2661	112.7324	189.9581	250.8813	298.9534	349.2878	429.2051	499.7127	590.9436	641.488	691.0878	787.1875	855.2587	901.2664	932.3071	948.8536	960.2845	1011.5476	1037.6449	1049.2213	1077.2385	1092.3985	1121.8115	1126.4762	1155.3952	1160.5374	1202.8524	1241.7702	1252.8991	1291.2389	1334.3092	1377.6357	1402.6723	1461.6104	1469.2793	1478.97	1510.205	1517.1093	1791.7159	3044.9105	3092.6516	3094.1694	3110.9514	3114.0109	3137.9057	3162.0583	3182.0455	3202.1584	3484.3234
CC(=O)N1CC1C1CN1	CC(=O)N1C[C@H]1[C@H]1CN1	
InChI=1S/C6H10N2O/c1-4(9)8-3-6(8)5-2-7-5/h5-7H,2-3H2,1H3	InChI=1S/C6H10N2O/c1-4(9)8-3-6(8)5-2-7-5/h5-7H,2-3H2,1H3/t5-,6+,8?/m1/s1
