19
gdb 92459	2.31434	1.77372	1.4672	1.9225	69.64	-0.2345	0.0621	0.2966	981.3886	0.16115	-460.157685	-460.14987	-460.148925	-460.189603	31.221	
O	-0.0049753945	 1.4361935022	-0.0771383809	-0.435935
C	 0.0318351753	 0.0256443334	 0.0078653197	 0.148508
C	 0.6478880055	-0.5434761825	 1.3315790622	-0.262729
C	-0.5310967339	-1.3328941333	 1.9460981029	-0.063734
C	-1.6155386393	-0.3243398293	 2.3502039986	-0.07799
O	-2.1409891198	 0.1522085499	 1.091798502	-0.26721
C	-1.4100846394	-0.5205616632	 0.0711930135	 0.035697
C	-1.2002436914	-1.9213639878	 0.6869726598	 0.111805
O	-0.321665323	-2.7851677961	-0.0052729529	-0.442308
H	 0.9007473821	 1.74839111	-0.1623621505	 0.28193
H	 0.5428700859	-0.4057604329	-0.8632894678	 0.066257
H	 1.4979888652	-1.19735845	 1.128233342	 0.108603
H	 0.9776802144	 0.2714172942	 1.9827110875	 0.094639
H	-0.2647143261	-2.0449765582	 2.7279672815	 0.0714
H	-2.4280459124	-0.7837855072	 2.9281827996	 0.096043
H	-1.2144274603	 0.5190145394	 2.9248128985	 0.104
H	-1.9736828018	-0.4451672536	-0.8605206776	 0.06928
H	-2.1603401772	-2.4070646019	 0.9057916263	 0.074068
H	-0.7585630195	-3.0721662931	-0.8131726546	 0.287677
115.6749	224.2414	265.5386	272.4748	291.0447	308.5852	374.0128	430.0625	513.1993	572.9561	620.4914	750.5988	797.5654	841.7383	855.3839	891.0522	928.4665	954.003	978.8958	1024.7224	1038.4833	1065.4845	1070.2056	1106.1247	1138.8775	1171.8521	1193.79	1203.4374	1221.5786	1233.573	1271.7554	1293.8417	1304.3845	1323.1262	1348.9587	1360.9684	1378.4539	1427.0337	1430.8549	1481.4547	1529.3254	3005.4732	3010.8173	3021.2545	3051.5809	3061.4436	3105.1763	3111.4681	3117.8756	3821.2583	3825.8527
OC1CC2COC1C2O	O[C@H]1C[C@H]2CO[C@@H]1[C@H]2O	
InChI=1S/C6H10O3/c7-4-1-3-2-9-6(4)5(3)8/h3-8H,1-2H2	InChI=1S/C6H10O3/c7-4-1-3-2-9-6(4)5(3)8/h3-8H,1-2H2/t3-,4-,5-,6-/m0/s1
