16
gdb 34274	3.70721	1.51629	1.22507	3.7184	80.62	-0.2331	-0.0546	0.1785	991.9972	0.125262	-363.525739	-363.518864	-363.51792	-363.556778	27.67	
N	 0.1000149241	-1.0686829273	 0.2309192489	-0.338375
C	 0.0255610734	 0.0757485611	 0.0742306841	 0.194129
C	-0.096745072	 1.4991464678	-0.0969651381	 0.183057
C	-1.3756096491	 2.2083947962	 0.4176175891	-0.31897
C	-1.0591456358	 3.620751189	-0.0478765582	-0.106009
C	-0.057315354	 3.5953694321	-0.9482997621	 0.039131
C	 1.3616706341	 3.7992498289	-0.3889619087	-0.271043
C	 1.3199030018	 2.2304741371	-0.3283252501	-0.089891
C	 0.274222813	 2.1560953048	-1.3901203316	-0.131307
H	-2.2661869873	 1.7116719717	 0.0097121327	 0.131331
H	-1.4767709015	 2.2066495917	 1.5083330781	 0.130778
H	-1.2002959481	 4.4554058621	 0.6326226126	 0.108623
H	 2.1395457941	 4.09021651	-1.1039130702	 0.119809
H	 1.4530920727	 4.3803420973	 0.5315979414	 0.114155
H	 2.1980456561	 1.5964360062	-0.238867848	 0.11981
H	 0.2919525782	 1.7272853812	-2.3827918498	 0.114773
154.2412	156.0291	277.5204	385.5314	401.297	480.6755	526.6505	559.0286	609.9065	673.9993	754.1892	805.0624	832.4056	856.9182	877.1975	919.5694	931.1585	998.9561	1001.3364	1016.5033	1061.708	1069.7905	1085.564	1143.8985	1165.5263	1193.4896	1221.0086	1229.2782	1275.0796	1296.7931	1343.5292	1474.9402	1499.7939	1597.725	2342.896	3016.0575	3036.4659	3072.3373	3109.2913	3151.74	3169.5175	3209.224
N#CC12CC=C3CC1C23	N#C[C@@]12C[CH][C]3C[C@@H]1[C@@H]23	
InChI=1S/C8H7N/c9-4-8-2-1-5-3-6(8)7(5)8/h1,6-7H,2-3H2	InChI=1S/C8H7N/c9-4-8-2-1-5-3-6(8)7(5)8/h1,6-7H,2-3H2/t6-,7+,8+/m1/s1
