16
gdb 5121	3.45138	2.02224	1.29445	0.3327	67.95	-0.1728	0.0609	0.2337	919.1874	0.131537	-379.945056	-379.93687	-379.935926	-379.977567	30.078	
C	 0.0413625297	 1.461602515	 0.0008714962	-0.338199
N	-0.0291021417	 0.0165640515	-0.0043087646	-0.051954
C	-0.1392686699	-0.8004288989	-1.1223144864	-0.113703
C	-0.0926772958	-2.1089501856	-0.7130631025	-0.246558
C	 0.0585441019	-2.1059685732	 0.7107045299	 0.056042
N	 0.1523270417	-3.1451391136	 1.6871364288	-0.625394
C	 0.0967623699	-0.7847393586	 1.0911687989	 0.37965
O	 0.2286821051	-0.2528951312	 2.3273420359	-0.450324
H	 1.06970174	 1.8221771876	-0.1224437703	 0.134189
H	-0.5694136132	 1.8574936581	-0.8140774246	 0.134648
H	-0.3460172116	 1.8404660587	 0.9484681986	 0.154194
H	-0.2447762767	-0.3618238595	-2.1010953746	 0.108459
H	-0.1697938273	-2.9752273801	-1.3532046556	 0.084618
H	 0.9540792011	-3.7465946045	 1.5215758792	 0.236
H	-0.66685483	-3.7458176033	 1.6784410699	 0.235942
H	 0.2725518167	-1.0229299724	 2.9148166312	 0.302392
66.7902	130.7084	229.6924	248.9123	271.139	278.0438	293.5472	517.4941	524.3068	586.8578	610.3776	624.2037	700.2656	753.0346	762.3884	779.8117	864.9877	1013.9106	1066.5025	1105.4566	1150.9162	1206.2875	1210.3576	1252.4366	1308.7696	1378.6445	1401.2334	1453.5148	1489.148	1510.2447	1529.2877	1583.8201	1629.0829	1682.1239	3027.7339	3099.2822	3140.2526	3237.4412	3268.0605	3481.6465	3541.6617	3727.5798
CN1C=CC(N)=C1O	Cn1ccc(N)c1O	
InChI=1S/C5H8N2O/c1-7-3-2-4(6)5(7)8/h2-3,8H,6H2,1H3	InChI=1S/C5H8N2O/c1-7-3-2-4(6)5(7)8/h2-3,8H,6H2,1H3
