22
gdb 113961	3.85021	0.7184	0.71002	2.2624	82.72	-0.2447	0.0727	0.3175	1703.193	0.194511	-404.301674	-404.291983	-404.291039	-404.337619	35.727	
O	 0.0313785277	 1.0858473134	-0.9227568088	-0.423275
C	-0.0059443506	 0.1707125778	 0.1602465046	-0.063249
C	-1.329513442	-0.5580184102	 0.2005144487	-0.048972
N	-1.5496129517	-1.4898222528	-0.9267515228	-0.347696
C	-1.4984321557	-2.0158598767	 0.4496609922	 0.000322
C	-0.385108545	-2.9856365193	 0.7914156341	-0.228238
C	-0.7582653735	-4.4215862304	 0.4777779081	 0.031781
C	-0.6212437219	-4.9488138148	-0.9283310631	-0.24803
C	 0.3099853054	-5.4349900411	 0.1556452428	-0.281103
H	-0.1783522153	 0.5654647036	-1.7077084379	 0.287767
H	 0.8253308365	-0.5452650953	 0.1011153018	 0.088752
H	 0.1296448034	 0.7629866913	 1.0715293614	 0.106455
H	-2.1695436193	 0.07767448	 0.4774339878	 0.086852
H	-2.5088729243	-1.4348109268	-1.2561541462	 0.232573
H	-2.4571006008	-2.2887193335	 0.8928707714	 0.080586
H	 0.516570655	-2.7179231804	 0.2320517743	 0.102138
H	-0.1402556115	-2.8906641911	 1.858342408	 0.097868
H	-1.6087970808	-4.795320103	 1.0440246821	 0.077098
H	-1.3753154227	-5.6328566418	-1.3019998231	 0.106356
H	-0.2246806455	-4.2719759876	-1.6769330743	 0.123498
H	 1.3400798007	-5.0940181403	 0.1316563647	 0.109511
H	 0.1888383019	-6.447915041	 0.5235687643	 0.109008
41.9946	62.3052	83.9452	115.2849	202.0433	255.0863	331.2924	358.1362	432.6471	449.6028	481.1409	568.1892	772.7862	789.7487	805.9484	832.1322	850.126	887.9158	914.7419	950.5708	973.246	986.5916	1029.7383	1035.617	1056.7832	1067.9113	1076.1438	1103.7074	1138.2849	1158.7899	1184.8158	1197.8918	1228.8616	1239.6771	1269.7552	1272.0001	1286.3302	1322.3574	1363.1275	1401.9006	1413.3673	1442.0826	1468.4444	1474.9453	1480.8358	1498.6606	1508.6148	3008.2564	3017.365	3071.5155	3078.2484	3095.1518	3118.5837	3126.6645	3129.5773	3137.575	3208.1902	3224.6745	3511.1336	3787.3628
OCC1NC1CC1CC1	OC[C@H]1N[C@H]1CC1CC1	
InChI=1S/C7H13NO/c9-4-7-6(8-7)3-5-1-2-5/h5-9H,1-4H2	InChI=1S/C7H13NO/c9-4-7-6(8-7)3-5-1-2-5/h5-9H,1-4H2/t6-,7+/m0/s1
