23
gdb 82749	2.16287	2.04884	1.49195	0.0723	88.6	-0.2637	0.0905	0.3542	1033.0348	0.207851	-351.133244	-351.125356	-351.124412	-351.164806	33.287	
C	-0.127005453	 1.5073558538	-0.014322283	-0.437683
C	 0.0813839569	-0.0060620153	 0.023647014	 0.029298
C	 1.0626005926	-0.6129674732	-1.0083932679	-0.055267
C	 2.418082464	 0.0505240925	-0.6449169614	-0.247419
C	 2.276529427	-0.7831319791	 0.6350107746	-0.060046
C	 1.5350430582	-1.8884910448	-0.1792432793	-0.028513
C	 0.5889393173	-2.1234758256	 1.0033517794	-0.281109
C	 0.8134041607	-0.6052061654	 1.2643245858	 0.326922
C	 0.5881202238	 0.0042915534	 2.6283621153	-0.508079
H	 0.7837565651	 2.0723285761	 0.1994860301	 0.118246
H	-0.4900600338	 1.8233311991	-0.9989175558	 0.110925
H	-0.8768417622	 1.8106542545	 0.7238815469	 0.112871
H	-0.9046214755	-0.4767094327	-0.0753308031	 0.059652
H	 0.7247113593	-0.6897765986	-2.0427780743	 0.052951
H	 3.2344551368	-0.3388235768	-1.261856092	 0.09264
H	 2.4906495804	 1.1402280551	-0.6046370186	 0.087204
H	 3.0920389787	-0.9934536563	 1.3277956204	 0.056751
H	 2.0537755604	-2.6792092758	-0.720705381	 0.061101
H	-0.4368162311	-2.4708478419	 0.8373067435	 0.083083
H	 1.0696037079	-2.7516312986	 1.7609820904	 0.087488
H	 1.1777987934	-0.5120056094	 3.393574285	 0.1107
H	 0.8696146735	 1.0628413736	 2.6514586611	 0.115493
H	-0.4661869104	-0.0635752147	 2.92351213	 0.112791
177.3294	216.4717	224.3273	250.0837	313.2244	339.6069	436.8587	465.6153	500.916	600.114	662.7072	702.3026	778.1958	805.6169	813.0098	847.1048	862.7032	916.8603	938.3512	967.4956	1004.7696	1006.3528	1012.5635	1017.2692	1040.732	1072.2615	1086.3505	1108.6583	1124.8662	1155.4076	1181.3167	1195.4525	1208.0842	1219.4087	1246.0926	1262.044	1276.7742	1283.048	1306.6953	1344.8937	1394.143	1410.0213	1415.4682	1487.7742	1491.6787	1497.12	1500.4828	1503.3584	1521.4801	3018.0028	3020.9339	3031.0334	3033.6599	3050.1087	3081.9287	3084.2088	3090.3715	3093.2554	3096.9419	3100.0102	3105.8787	3116.3515	3119.7806
CC1C2CC3C2CC13C	C[C@H]1[C@H]2C[C@@H]3[C@H]2C[C@]13C	
InChI=1S/C9H14/c1-5-6-3-8-7(6)4-9(5,8)2/h5-8H,3-4H2,1-2H3	InChI=1S/C9H14/c1-5-6-3-8-7(6)4-9(5,8)2/h5-8H,3-4H2,1-2H3/t5-,6+,7-,8+,9+/m0/s1
