16
gdb 47756	1.99951	1.79113	1.32163	4.6504	70.1	-0.2536	-0.0069	0.2468	1020.505	0.12679	-434.071599	-434.063539	-434.062595	-434.104943	29.424	
N	 0.224917204	 0.8504993949	-1.2510698731	-0.515469
C	 0.0438949951	 0.0199701316	-0.3173668782	 0.412144
O	 1.0218599537	-0.3988436106	 0.5248652852	-0.24239
C	 0.6308617454	-1.3407127786	 1.5371923859	-0.108585
C	-0.085239988	-2.5327067083	 0.9124923882	-0.164609
N	-1.2183726122	-2.0948966695	 0.076777376	-0.286035
C	-1.3183904256	-0.6467712964	-0.1188300602	-0.241832
C	-2.054032993	-0.0155226711	 0.996211456	 0.316566
N	-2.6182870489	 0.4804977315	 1.8740016192	-0.33011
H	 1.1939584938	 1.1765149481	-1.2599412767	 0.228795
H	 1.555212409	-1.6540434056	 2.0247307002	 0.133214
H	 0.0022712162	-0.8412789434	 2.2820794611	 0.152199
H	 0.6368018632	-3.098834787	 0.311546473	 0.117248
H	-0.4357686194	-3.1927294832	 1.7161953716	 0.125217
H	-1.1846341775	-2.5409579055	-0.8294225059	 0.243211
H	-1.8884317759	-0.449271227	-1.0286078121	 0.160437
52.8671	98.1506	147.568	225.2051	300.5858	393.1647	424.3796	457.6968	526.2124	574.4315	649.0036	676.0883	772.4035	827.6554	890.2835	901.8991	912.6452	970.6144	1033.2797	1046.2441	1130.7435	1146.115	1171.1954	1250.0374	1263.9348	1280.8975	1317.8845	1337.7985	1408.2309	1423.1005	1485.4014	1512.7283	1518.2688	1758.9346	2358.0613	3018.2684	3047.4623	3064.7596	3107.8538	3127.3574	3464.1097	3580.775
N=C1OCCNC1C#N	[NH][C]1OCCN[C@H]1C#N	
InChI=1S/C5H7N3O/c6-3-4-5(7)9-2-1-8-4/h4,7-8H,1-2H2	InChI=1S/C5H7N3O/c6-3-4-5(7)9-2-1-8-4/h4,7-8H,1-2H2/t4-/m0/s1
