16
gdb 94140	1.93453	1.58562	1.34291	4.5118	74.11	-0.2619	-0.027	0.2349	1065.4212	0.123747	-396.919689	-396.910842	-396.909898	-396.953244	31.625	
C	-0.0352218073	 1.5029868469	-0.1184150118	-0.348422
N	-0.0389358385	 0.0722989983	 0.1179281035	-0.076797
C	-1.2817119075	-0.6425336525	 0.4680938096	-0.17258
C	-0.4398026548	-1.6105183463	 1.3302851191	-0.269364
C	 0.6795918371	-0.5091241696	 1.2676534928	 0.020195
C	 2.0475829381	-0.9511101798	 0.9658646082	 0.277552
N	 3.109466884	-1.3245847408	 0.7081874827	-0.32123
C	 0.6770135187	 0.3349264394	 2.4819058351	 0.264036
N	 0.6100051368	 1.0344309526	 3.399345834	-0.327091
H	 0.9864489462	 1.8375446447	-0.3216874573	 0.146938
H	-0.6399413512	 1.7073893443	-1.0065362758	 0.138776
H	-0.4369795999	 2.0871481466	 0.7247969817	 0.128336
H	-1.9784859796	-0.0435101365	 1.073112597	 0.115925
H	-1.8149845154	-1.0594979351	-0.3900562111	 0.125981
H	-0.800699507	-1.857306009	 2.3264326889	 0.146324
H	-0.1293934895	-2.5094327634	 0.7995350535	 0.15142
106.8812	126.3823	142.7504	159.1518	217.5231	237.5959	321.3152	333.7577	485.2299	510.5139	533.0549	589.4797	613.8491	699.6981	794.7197	920.1421	957.0519	969.3148	1005.9623	1083.8048	1128.26	1167.1135	1187.6424	1206.6666	1233.996	1260.1297	1272.1817	1331.8799	1450.8316	1480.6821	1487.1006	1501.4074	1526.5965	2348.5816	2365.2249	2982.7892	2997.3236	3080.5988	3089.5277	3112.3153	3118.8044	3180.6759
CN1CCC1(C#N)C#N	CN1CCC1(C#N)C#N	
InChI=1S/C6H7N3/c1-9-3-2-6(9,4-7)5-8/h2-3H2,1H3	InChI=1S/C6H7N3/c1-9-3-2-6(9,4-7)5-8/h2-3H2,1H3
