16
gdb 14419	2.99593	2.3538	1.74533	0.9207	63.75	-0.226	0.0708	0.2968	798.4995	0.130032	-383.664646	-383.657634	-383.65669	-383.695511	27.285	
C	-0.0434490459	 1.5906774475	-0.0938764105	-0.533183
C	 0.0145027657	 0.1032982455	 0.0018373432	 0.302201
C	 0.0745181787	-1.0248990685	-0.9669862834	 0.029062
O	 1.2063824693	-1.6759882588	-0.3792753788	-0.296184
C	 0.8887496452	-0.9288238747	 0.8241570605	-0.029485
C	-0.4306718452	-1.586532773	 1.327433339	 0.118114
O	-0.9669989654	-0.9556386	 2.4730100782	-0.434958
C	-1.0557795946	-0.9929389467	 0.077105101	-0.174539
H	 0.9249517205	 2.0130229884	-0.3847031748	 0.125793
H	-0.7808422761	 1.8984900876	-0.8431070726	 0.125045
H	-0.3378424541	 2.0349676847	 0.8628338416	 0.134076
H	-0.0755799185	-1.0872760133	-2.0372123962	 0.108374
H	 1.7412755006	-0.7399709511	 1.4761398148	 0.080298
H	-0.4079720624	-2.6804250757	 1.4321384221	 0.068108
H	-0.4692371952	-1.2648092821	 3.2371731677	 0.284354
H	-2.1048432126	-0.9340322199	-0.184149922	 0.092923
140.3218	205.0201	261.0939	303.5512	317.5387	342.4203	504.7177	577.086	608.4109	770.0532	789.9653	849.7398	857.8103	891.2788	938.8488	971.2857	972.745	1002.4916	1026.5414	1085.211	1105.7954	1119.3133	1155.5842	1178.2313	1206.5009	1212.685	1240.8567	1295.0758	1307.8793	1408.6092	1425.0474	1468.41	1484.1943	1498.0235	3004.8206	3025.8094	3090.6148	3096.2173	3126.9753	3196.8165	3206.6983	3807.3122
CC12C3OC1C(O)C23	C[C@@]12[C@H]3O[C@@H]1[C@@H](O)[C@@H]23	
InChI=1S/C6H8O2/c1-6-2-3(7)5(6)8-4(2)6/h2-5,7H,1H3	InChI=1S/C6H8O2/c1-6-2-3(7)5(6)8-4(2)6/h2-5,7H,1H3/t2-,3+,4+,5-,6-/m1/s1
