17
gdb 26582	2.3376	1.83346	1.03514	3.0288	81.5	-0.1833	-0.0151	0.1682	1112.9073	0.138216	-418.092948	-418.084755	-418.083811	-418.125339	31.857	
C	 0.0233356674	 1.5408544894	 0.0228192181	-0.512462
C	 0.0309128668	 0.0344737939	 0.0066456439	 0.232079
C	-1.1558877755	-0.6607812179	 0.0433403863	 0.097156
N	-2.4083851091	-0.0804261231	 0.1370080355	-0.580987
C	-1.1855530487	-2.1218285883	 0.0310661979	 0.410183
O	-2.2211332329	-2.7851827898	 0.0423444039	-0.42692
N	 0.0636863204	-2.7185212391	-0.0031953323	-0.377076
C	 1.2586711245	-2.0462871083	-0.03966579	-0.003483
C	 1.2603194175	-0.689817143	-0.0376440261	-0.221475
H	 1.032228259	 1.9444185428	 0.1369477296	 0.126237
H	-0.3917934905	 1.9568433237	-0.9057257937	 0.126495
H	-0.5927609906	 1.9217880465	 0.846129912	 0.139466
H	-2.5362964599	 0.8063841888	-0.3250833674	 0.246344
H	-3.1425374764	-0.7551617493	-0.0413691098	 0.263544
H	 0.0427777695	-3.728289595	-0.0169673353	 0.259288
H	 2.1512886717	-2.6562668061	-0.0669200346	 0.125991
H	 2.2012789768	-0.1547900353	-0.063891978	 0.09562
118.5993	147.6453	205.186	283.8964	288.917	337.6097	388.1163	490.62	522.7225	529.8411	558.5525	577.5389	644.7882	702.7043	708.9052	748.7498	790.2731	857.621	885.6715	955.02	1024.2447	1052.4975	1114.0735	1182.0682	1217.1377	1265.3697	1296.1682	1367.7828	1415.5668	1447.5376	1483.337	1487.5423	1503.9994	1584.5223	1624.4777	1672.9997	1746.4783	3009.9226	3062.0387	3117.2389	3204.7752	3228.3695	3539.1764	3615.24	3664.4712
CC1=C(N)C(=O)NC=C1	Cc1c(N)c(=O)[nH]cc1	
InChI=1S/C6H8N2O/c1-4-2-3-8-6(9)5(4)7/h2-3H,7H2,1H3,(H,8,9)	InChI=1S/C6H8N2O/c1-4-2-3-8-6(9)5(4)7/h2-3H,7H2,1H3,(H,8,9)
