17
gdb 75340	2.58527	1.75768	1.21258	1.4933	75.54	-0.2283	-0.0485	0.1798	1026.4279	0.138475	-418.036866	-418.029289	-418.028345	-418.068681	30.083	
N	 0.018267651	 1.3337366622	 0.1946799606	-0.539058
C	-0.0765388625	-0.0206684256	 0.0211795613	 0.242386
N	-1.2026272517	-0.6301771905	 0.0217305421	-0.296011
C	-1.2495857199	-2.0703143175	-0.1530713128	-0.181392
C	-0.0705313616	-2.7264291316	-0.8508438354	-0.0411
C	 0.480283314	-2.1371886608	-2.1017585521	-0.297739
C	 1.2722338481	-2.0064195363	-0.7962644871	-0.142476
C	 1.2819430771	-0.6841663925	-0.1500426644	 0.381689
O	 2.2862362046	-0.1324038568	 0.2578726896	-0.35346
H	 0.9250356388	 1.6551971907	 0.500274805	 0.267652
H	-0.7903905652	 1.7910150183	 0.5854964941	 0.255125
H	-1.3832273817	-2.5301257396	 0.8376101419	 0.113655
H	-2.1666332315	-2.3076425753	-0.7089560051	 0.11441
H	-0.0283798036	-3.8077864267	-0.7582710587	 0.099002
H	 0.9079779274	-2.7994503781	-2.8452247406	 0.128325
H	 0.0210153777	-1.2394052225	-2.5003117523	 0.140411
H	 2.1954236791	-2.5665027476	-0.7075082961	 0.10858
97.1695	196.0833	254.3102	319.9418	335.388	421.7852	464.4643	475.9363	525.0433	555.684	581.3179	681.1695	736.5684	759.9943	815.2488	852.9915	917.7432	949.5543	958.7726	998.9481	1050.3889	1079.2368	1103.6169	1123.4515	1195.313	1225.1504	1230.7895	1274.9594	1351.9583	1365.9259	1401.4584	1412.3475	1482.1433	1492.4787	1598.6156	1718.4601	1775.5336	2994.2779	3024.5151	3142.1547	3150.8022	3188.3245	3232.2126	3573.3353	3698.0147
NC1=NCC2CC2C1=O	NC1=NC[C@H]2C[C@H]2C1=O	
InChI=1S/C6H8N2O/c7-6-5(9)4-1-3(4)2-8-6/h3-4H,1-2H2,(H2,7,8)	InChI=1S/C6H8N2O/c7-6-5(9)4-1-3(4)2-8-6/h3-4H,1-2H2,(H2,7,8)/t3-,4-/m1/s1
