17
gdb 5528	3.09043	1.81683	1.23574	1.4154	71.73	-0.1785	0.0489	0.2274	993.1579	0.142457	-363.900196	-363.891764	-363.89082	-363.933439	30.778	
C	 0.0535653707	 1.5735203353	 0.303910186	-0.363197
C	-0.0104513185	 0.0808309054	-0.0704348547	-0.304381
C	-1.3914284652	-0.4873549778	-0.0957676454	 0.22144
C	-2.1904520561	-0.8558103415	-1.1574177719	 0.24781
O	-1.7938271827	-0.7472610868	-2.4645262652	-0.455128
C	-3.4335504253	-1.329955622	-0.6543556936	-0.278591
C	-3.3646700231	-1.2379242392	 0.7187342705	-0.079537
N	-2.1395553123	-0.7273772342	 1.0441181557	-0.2964
H	 1.0874817188	 1.9342433118	 0.3028610759	 0.108608
H	-0.5216726159	 2.1752514358	-0.4057540702	 0.126551
H	-0.3611103612	 1.7537786746	 1.3018258885	 0.103446
H	 0.4200188944	-0.0625809249	-1.0663580689	 0.126806
H	 0.6235364348	-0.4914448101	 0.6220033258	 0.09519
H	-2.4642341214	-1.1555092449	-3.0186457206	 0.293649
H	-4.2724308172	-1.6928193675	-1.2296808951	 0.083922
H	-4.0848761179	-1.4949969038	 1.4782712696	 0.113941
H	-1.8119305621	-0.5670751402	 1.9799909037	 0.25587
44.4554	132.4383	159.3371	191.9538	276.4888	290.0328	377.7478	411.8377	466.5734	622.1541	642.0948	671.0683	700.989	727.7449	777.0678	782.7043	909.6269	964.946	1031.0453	1077.4825	1090.6775	1103.3973	1156.1797	1255.2583	1259.4991	1317.9658	1338.4283	1361.7886	1405.8649	1452.2517	1479.2176	1495.4344	1499.148	1507.015	1517.4446	1669.2042	3001.8586	3030.8625	3077.7011	3099.5917	3113.1845	3235.829	3269.5394	3686.5272	3849.806
CCC1=C(O)C=CN1	CCc1c(O)cc[nH]1	
InChI=1S/C6H9NO/c1-2-5-6(8)3-4-7-5/h3-4,7-8H,2H2,1H3	InChI=1S/C6H9NO/c1-2-5-6(8)3-4-7-5/h3-4,7-8H,2H2,1H3
