23
gdb 87717	2.35091	1.2683	1.10949	1.7791	85.58	-0.2499	0.0733	0.3233	1278.3101	0.203702	-388.277607	-388.267672	-388.266727	-388.312044	37.716	
C	 0.0621166155	 1.5402674135	-0.2383828742	-0.416944
C	 0.0227792261	 0.0469690557	-0.0447916207	-0.026266
O	 1.2820476621	-0.6481413899	-0.1043386361	-0.304687
C	 0.5857667619	-0.6282728717	 1.1308897532	 0.441652
C	 1.1076743742	-0.0226631509	 2.4351028821	-0.334732
C	 0.2195661287	-1.0558382309	 3.2006298258	-0.00203
C	-1.0733021373	-0.4605488297	 3.7508885284	-0.393534
C	 0.0818407162	-1.8757352509	 1.8656604589	-0.055177
C	-1.2352422513	-2.5266393029	 1.4694418675	-0.424515
H	 0.8745381574	 1.9895667433	 0.3380832473	 0.127602
H	 0.2164675955	 1.7864931099	-1.2942400482	 0.128436
H	-0.8843880744	 1.9942943398	 0.0761483279	 0.118173
H	-0.7782580864	-0.4662299839	-0.5809465887	 0.085792
H	 2.1786198978	-0.2053705114	 2.5613464312	 0.109936
H	 0.9053461014	 1.0358260972	 2.6218310043	 0.098925
H	 0.7401073893	-1.596503321	 3.9954356819	 0.067998
H	-1.6064131174	 0.122268538	 2.9912995582	 0.114444
H	-1.7546889752	-1.2377709948	 4.1125831696	 0.115253
H	-0.8595474105	 0.2117840132	 4.588750035	 0.114135
H	 0.8817443679	-2.6257817048	 1.8342813718	 0.083053
H	-2.0654444869	-1.8138696459	 1.4820442354	 0.114677
H	-1.1692342883	-2.9444836777	 0.4589249468	 0.123084
H	-1.4897876565	-3.3487173641	 2.1472882128	 0.114723
65.1969	138.2005	174.7542	191.8263	220.5457	229.2991	245.8115	258.8954	350.2534	406.6542	452.7279	477.3961	504.8765	585.1343	736.6541	776.9771	797.0617	840.4405	884.0173	914.3836	964.2709	985.9854	1002.7228	1040.6614	1044.9301	1100.3455	1108.1379	1127.0693	1146.9089	1175.3245	1187.5258	1198.2755	1223.7311	1272.642	1281.4108	1346.9312	1366.5065	1370.8466	1406.1354	1409.0037	1413.1793	1468.2272	1482.4031	1489.5139	1491.216	1493.8297	1503.8174	1504.4003	1519.5723	3026.7339	3028.4809	3031.8228	3034.327	3051.908	3064.2237	3083.082	3092.691	3094.1672	3096.7438	3097.5055	3104.1923	3106.695	3125.6641
CC1OC11CC(C)C1C	C[C@H]1O[C@]21C[C@@H](C)[C@H]2C	
InChI=1S/C8H14O/c1-5-4-8(6(5)2)7(3)9-8/h5-7H,4H2,1-3H3	InChI=1S/C8H14O/c1-5-4-8(6(5)2)7(3)9-8/h5-7H,4H2,1-3H3/t5-,6-,7-,8-/m1/s1
