13
gdb 13582	4.49972	1.35224	1.23191	3.8759	62.83	-0.2717	-0.0921	0.1796	959.4142	0.09439	-398.602155	-398.594703	-398.593759	-398.634178	26.971	
O	 0.082523817	 1.3108210944	-0.1881057989	-0.399363
C	 0.0092091729	-0.0426581585	 0.0024285765	 0.161711
C	-0.3878348053	-0.6634764769	 1.2794667275	-0.3253
C	-1.3916175781	-0.7656735991	 0.12055608	-0.210403
C	-2.5331923875	 0.1403679052	 0.1344591742	 0.328307
O	-2.5314724551	 1.2473818434	 0.6512682423	-0.352973
C	-3.7347560577	-0.3304600398	-0.5760450531	 0.234256
N	-4.6784721578	-0.7134538244	-1.1235106082	-0.301027
H	-0.6462513859	 1.7277331388	 0.3011544171	 0.313067
H	 0.7136089895	-0.5646054882	-0.6362609666	 0.13691
H	 0.0734806632	-1.5959615179	 1.5842210215	 0.139774
H	-0.682380566	 0.0002709096	 2.0861370202	 0.14938
H	-1.5204983692	-1.7184991465	-0.3766122126	 0.12566
72.3001	149.5658	198.609	255.9875	316.0198	399.0092	466.6422	511.3169	541.4005	610.1101	660.5823	771.6518	801.4253	849.1031	891.8448	1003.1585	1057.5396	1080.6251	1103.367	1134.0984	1145.1189	1241.7287	1363.0224	1404.0523	1447.0002	1480.5698	1717.0548	2340.1005	3134.6986	3182.8236	3200.6947	3231.8456	3669.3113
OC1CC1C(=O)C#N	O[C@H]1C[C@H]1C(=O)C#N	
InChI=1S/C5H5NO2/c6-2-5(8)3-1-4(3)7/h3-4,7H,1H2	InChI=1S/C5H5NO2/c6-2-5(8)3-1-4(3)7/h3-4,7H,1H2/t3-,4+/m1/s1
