16
gdb 54172	3.17906	1.13451	0.99971	4.9563	72.27	-0.253	-0.0026	0.2504	1193.5034	0.123264	-437.876543	-437.867734	-437.86679	-437.910091	33.085	
N	 0.0419347709	 1.0460582408	-0.0054791353	-0.607692
H	-0.3698837517	 0.2641423169	-0.5016998699	 0.249709
H	 1.0030691567	 0.8039929521	 0.2196109144	 0.253963
H	-0.5004110894	 2.8295641834	-0.5173657066	 0.305993
C	-0.7059114207	 1.3911824773	 1.1798455145	 0.121685
C	-1.4253107349	 0.3550518724	 2.0080233096	-0.311221
C	-0.1794651377	 0.9916244327	 2.5734585088	-0.226031
C	 1.0513873344	 0.2667147808	 2.6424350366	 0.302693
C	 2.1016841485	-0.3215051044	 2.6561128675	-0.421275
C	-1.339158498	 2.7671078788	 1.1321130859	 0.433054
O	-1.0686956547	 3.435061689	 0.0063568261	-0.377291
O	-2.0132366105	 3.2143631983	 2.0251509701	-0.35948
H	-2.3674117035	 0.656759462	 2.4491585548	 0.15443
H	-1.3516899209	-0.6743711906	 1.6765206451	 0.126645
H	-0.3439810323	 1.74477449	 3.3371044226	 0.149362
H	 3.0214722639	-0.8503388894	 2.7061981359	 0.205455
74.4939	115.2114	137.5277	242.387	278.8977	291.4953	367.4879	375.3468	463.963	528.7662	541.4957	604.1998	630.5052	664.629	743.9371	751.4494	830.5862	845.0694	856.5811	876.0123	943.4478	1015.465	1047.8816	1082.7081	1132.1218	1184.008	1243.1806	1259.2081	1330.0911	1373.4446	1430.6301	1460.2235	1657.2208	1853.5461	2232.3628	3145.2324	3171.5519	3247.1987	3488.7478	3501.0742	3506.4393	3580.6036
[NH3+]C1(CC1C#C)C([O-])=O	N[C@]1(C[C@H]1C#C)C(=O)O	
InChI=1S/C6H7NO2/c1-2-4-3-6(4,7)5(8)9/h1,4H,3,7H2,(H,8,9)	InChI=1S/C6H7NO2/c1-2-4-3-6(4,7)5(8)9/h1,4H,3,7H2,(H,8,9)/t4-,6+/m1/s1
