21
gdb 85957	2.8193	1.13689	1.07612	1.8471	78.82	-0.2298	-0.0135	0.2162	1275.6043	0.178726	-424.24562	-424.23527	-424.234326	-424.281829	37.303	
C	-0.318393582	 1.1821142044	 1.0898837885	-0.399995
C	 0.3863510201	-0.0391419753	 0.5377719633	 0.162218
C	 0.5833227453	-0.1548703245	-0.9889279968	-0.342636
C	 2.0897587221	-0.236261964	-0.6535426792	 0.330892
C	 3.0020423791	 0.824051196	-1.2599917623	-0.442624
O	 1.8246180913	 0.007425235	 0.7524884486	-0.339084
C	 2.7033890399	-1.6236378608	-0.8931394301	 0.32758
C	 3.4459633725	-2.2549634354	 0.2645110576	-0.473372
O	 2.5956706421	-2.1510943121	-1.9768876794	-0.314478
H	 0.0749444122	 2.0970764994	 0.6363339433	 0.119321
H	-1.3935180333	 1.1256282467	 0.8867026234	 0.118718
H	-0.1785749837	 1.2484680824	 2.1734377854	 0.128129
H	-0.0308934835	-0.9506980078	 0.9884064222	 0.075569
H	 0.1638395837	-1.0306460642	-1.4834722881	 0.125194
H	 0.3042934619	 0.7443647839	-1.5430075511	 0.105875
H	 2.5728575383	 1.8183339383	-1.1097265029	 0.121356
H	 3.9907825478	 0.8050468641	-0.7894275635	 0.125835
H	 3.1229710542	 0.641190889	-2.3316695752	 0.1414
H	 2.7439205181	-2.4839132177	 1.0723170373	 0.151927
H	 3.9442636755	-3.1648950953	-0.0714780055	 0.134793
H	 4.1715433285	-1.5528072822	 0.6882463846	 0.143382
28.8193	56.7547	118.4644	178.3781	209.6064	221.647	228.2584	291.0751	326.0298	347.9142	434.4319	468.6903	530.173	596.2366	629.5034	746.2555	838.2765	884.7753	916.59	919.472	931.6978	971.4988	997.8978	1024.5925	1069.5199	1112.936	1150.3885	1160.0375	1193.1866	1208.2431	1257.4269	1290.8614	1316.6889	1379.823	1389.9674	1393.5546	1410.5179	1451.614	1465.1624	1479.7441	1484.0148	1488.9475	1492.1661	1499.7551	1806.0689	2999.2908	3033.3236	3037.0723	3046.8877	3076.3281	3105.772	3107.695	3109.9834	3113.0677	3125.5415	3142.6102	3156.3172
CC1CC(C)(O1)C(C)=O	C[C@H]1C[C@@](C)(O1)C(=O)C	
InChI=1S/C7H12O2/c1-5-4-7(3,9-5)6(2)8/h5H,4H2,1-3H3	InChI=1S/C7H12O2/c1-5-4-7(3,9-5)6(2)8/h5H,4H2,1-3H3/t5-,7+/m0/s1
