19
gdb 40144	2.73554	1.51183	1.26589	2.2392	75.22	-0.2296	0.0662	0.2958	1072.2788	0.158649	-422.969965	-422.961845	-422.960901	-423.00297	31.044	
C	 0.2491283256	 1.4911335945	-0.2338081912	-0.347574
C	 1.3300707468	 0.4662679052	 0.0841155694	-0.323257
C	-0.0984225751	 0.0545431208	-0.0408142347	 0.414583
O	-0.8680423763	-0.4218763697	 1.0638888654	-0.316803
C	-1.3386755005	-1.544857223	 0.2817452233	-0.132627
C	-0.6818525297	-0.9800011897	-0.9937135793	 0.283536
C	-1.4760663394	-0.6303160629	-2.2666502241	-0.352188
C	-0.486628579	-1.575677528	-2.9724984993	-0.075909
O	 0.2195040412	-1.815223332	-1.7329768582	-0.305606
H	-0.039803061	 2.174278944	 0.5577781089	 0.126751
H	 0.2021144765	 1.9107318651	-1.2342279645	 0.112231
H	 2.0099947906	 0.1590016414	-0.703256926	 0.126113
H	 1.7523443176	 0.4804646323	 1.0829477895	 0.124574
H	-0.894534286	-2.493424921	 0.6061984282	 0.114062
H	-2.4319591594	-1.6182364113	 0.2859740807	 0.102745
H	-2.5206710794	-0.9463747689	-2.2641517399	 0.115543
H	-1.4191184468	 0.4179750582	-2.5652454011	 0.118538
H	-0.9159648668	-2.4983050721	-3.3796235824	 0.107432
H	 0.1631220411	-1.120450253	-3.7281821045	 0.107856
79.2455	91.95	174.0622	218.0476	269.4775	350.3839	421.6874	507.5151	523.2449	588.1378	759.1185	783.8783	856.224	867.7159	872.2701	897.6924	909.5531	965.9367	969.645	988.4401	1011.135	1024.5057	1046.3556	1065.0363	1129.0473	1144.847	1165.3099	1170.2316	1187.5257	1206.8364	1220.3828	1237.5796	1270.0589	1343.9969	1352.1054	1393.8012	1447.3564	1484.4048	1491.0897	1513.8628	1533.0689	3022.2733	3027.1299	3068.9901	3076.6718	3079.7957	3124.2274	3133.7806	3134.2803	3210.2435	3228.7581
C1CC11OCC11CCO1	C1CC21OC[C@]12CCO1	
InChI=1S/C7H10O2/c1-2-6(1)7(5-9-6)3-4-8-7/h1-5H2	InChI=1S/C7H10O2/c1-2-6(1)7(5-9-6)3-4-8-7/h1-5H2/t7-/m0/s1
