19
gdb 77397	2.14528	2.01178	1.25812	2.6078	75.18	-0.2423	0.057	0.2993	1038.2277	0.157685	-422.951187	-422.94261	-422.941666	-422.983586	33.781	
C	-0.1700051548	 1.6233082863	-0.0264607627	-0.445453
C	-0.0484160994	 0.1067077719	-0.0044262794	-0.134244
C	 1.1790881777	-0.5808086695	-0.6552396622	 0.41319
O	 1.5139364088	-0.6761471512	-1.99143646	-0.479591
C	 2.1472646964	-0.2720340005	 0.5530642572	-0.204093
C	 2.582260253	-1.7487572622	 0.6551800479	-0.28472
C	 1.089471903	-1.8290112902	 0.274132082	-0.123783
C	 0.7196919271	-0.5915049405	 1.1468740695	 0.413189
O	 0.3742889585	-0.7027391626	 2.4791525129	-0.479593
H	 0.7801497442	 2.1117956696	 0.218662454	 0.110437
H	-0.4836822942	 1.9821640906	-1.0132863438	 0.118279
H	-0.9188647295	 1.9720967551	 0.6936440664	 0.118283
H	-1.0031629892	-0.375402074	-0.2506743498	 0.06869
H	 1.7158828797	 0.2065463275	-2.3200648481	 0.285581
H	 2.735928147	 0.6336519368	 0.7085145612	 0.06339
H	 3.2949808451	-2.1005639499	-0.095039352	 0.099988
H	 2.8498101631	-2.1109297996	 1.6510790993	 0.099987
H	 0.4491978111	-2.6956931848	 0.1057716505	 0.074882
H	 0.3919789324	 0.175610827	 2.8742657373	 0.28558
178.3507	187.9795	211.4922	237.0544	251.7128	266.5691	287.1595	329.8539	442.1859	531.0304	550.6727	607.4833	652.4124	733.8738	735.5062	874.2466	880.1779	908.2873	953.0281	974.1766	992.901	1023.9528	1077.5856	1083.4357	1106.7321	1111.663	1124.0788	1158.8469	1170.8601	1183.0212	1235.2505	1269.5294	1272.2181	1294.064	1335.6205	1393.41	1411.3775	1452.6697	1496.8533	1502.0596	1507.9804	3022.9656	3029.182	3056.9071	3085.3304	3088.5368	3097.2522	3112.0529	3117.3568	3804.0086	3804.8471
CC1C2(O)C3CC2C13O	C[C@H]1[C@@]2(O)[C@@H]3C[C@H]2[C@]13O	
InChI=1S/C7H10O2/c1-3-6(8)4-2-5(6)7(3,4)9/h3-5,8-9H,2H2,1H3	InChI=1S/C7H10O2/c1-3-6(8)4-2-5(6)7(3,4)9/h3-5,8-9H,2H2,1H3/t3-,4-,5+,6+,7-
