14
gdb 31317	2.23787	1.51029	0.92164	4.2935	72.68	-0.2457	-0.0433	0.2024	1177.6093	0.101427	-436.71794	-436.709853	-436.708909	-436.751516	28.694	
O	 0.0278201892	 1.3481849832	 0.5161640046	-0.414548
C	 0.0151623975	 0.0915125271	-0.1429424252	-0.214611
C	-1.3688725004	-0.4658433461	-0.0465307143	 0.17433
C	-1.731932818	-1.780105257	 0.095394548	 0.18243
O	-3.0940558019	-1.9027480719	 0.109144908	-0.173519
C	-3.5916471185	-0.6520281303	-0.0161509691	-0.013483
C	-2.5927230321	 0.2659550904	-0.1170370839	-0.242838
C	-0.9559539295	-2.9502982294	 0.2221844888	 0.226079
N	-0.2824511642	-3.8882510344	 0.3246688307	-0.349288
H	 0.8920039515	 1.7473615365	 0.3777180005	 0.296088
H	 0.2875714211	 0.2017646827	-1.2054806518	 0.114668
H	 0.7310232929	-0.6158643523	 0.3010552015	 0.120663
H	-4.6669886993	-0.5789900336	-0.0131558276	 0.153234
H	-2.6932351284	 1.3345277352	-0.2115983003	 0.140793
48.0279	126.7223	162.847	194.4194	252.1845	299.1561	408.9203	505.9384	555.2835	607.0656	622.027	687.2441	737.6065	788.6798	857.204	915.5414	1015.8012	1044.6439	1084.2993	1112.1192	1182.4123	1232.5994	1239.4694	1269.636	1301.9762	1439.9097	1461.3853	1512.0952	1520.1582	1633.0425	2337.7672	2966.1776	3008.4111	3269.7407	3289.9608	3830.864
OCC1=C(OC=C1)C#N	OCc1c(occ1)C#N	
InChI=1S/C6H5NO2/c7-3-6-5(4-8)1-2-9-6/h1-2,8H,4H2	InChI=1S/C6H5NO2/c7-3-6-5(4-8)1-2-9-6/h1-2,8H,4H2
