16
gdb 130702	5.43401	0.97955	0.88536	3.5633	71.64	-0.2153	0.0177	0.233	1282.5381	0.126496	-434.101988	-434.094104	-434.09316	-434.135382	29.287	
O	 0.0365481932	-0.0328849811	-0.1465631837	-0.42281
C	 0.0048162735	 1.1721973846	-0.0265475062	 0.455006
N	-1.0623578355	 2.0225775477	 0.1608865407	-0.296569
N	-0.7151031136	 3.352447069	 0.2771449797	-0.28303
C	 0.5778005227	 3.3618885816	 0.1381120597	 0.423071
N	 1.0672912675	 2.0875336241	-0.044161346	-0.412937
C	 1.4293806283	 4.5617096465	 0.1293292824	-0.128242
C	 1.2540084876	 5.5989017372	-0.972464158	-0.25177
C	 0.819032402	 5.9084088106	 0.4288229627	-0.254199
H	-2.0200523817	 1.7398737261	 0.2677822282	 0.279794
H	 2.0231659332	 1.813878351	-0.190886699	 0.274643
H	 2.4452961043	 4.3889239177	 0.4704825108	 0.095344
H	 2.1486908341	 6.0725795017	-1.3609938974	 0.11996
H	 0.483169635	 5.4001876122	-1.7078707353	 0.133055
H	-0.2436460544	 5.9182170901	 0.6384944403	 0.149596
H	 1.4107062538	 6.6015649611	 1.015232771	 0.119088
31.8889	127.7598	176.5577	216.9551	343.0765	371.1123	461.5368	504.0993	524.2677	635.8548	721.4898	761.2114	764.8841	796.925	827.1902	903.3914	921.3116	1001.0331	1015.4357	1061.5621	1074.9722	1092.1906	1121.8218	1138.0522	1201.893	1204.5333	1231.4048	1268.5822	1372.9338	1388.6441	1463.8326	1483.2571	1513.4168	1639.3441	1857.4069	3139.6458	3148.1497	3157.2885	3227.6772	3243.8999	3688.0259	3700.9878
O=C1NN=C(N1)C1CC1	O=c1[nH]nc([nH]1)C1CC1	
InChI=1S/C5H7N3O/c9-5-6-4(7-8-5)3-1-2-3/h3H,1-2H2,(H2,6,7,8,9)	InChI=1S/C5H7N3O/c9-5-6-4(7-8-5)3-1-2-3/h3H,1-2H2,(H2,6,7,8,9)
