14
gdb 132582	3.20002	1.39718	0.97842	1.0483	67.76	-0.2467	-0.0377	0.2091	1119.7727	0.100621	-478.0364	-478.028595	-478.027651	-478.069322	28.563	
C	-0.046691233	 1.4859339025	 0.038867675	-0.460829
C	-0.0049184391	-0.0143776464	-0.013073876	 0.34098
N	-0.1104053644	-0.6124441849	-1.1989227555	-0.276803
C	-0.070953764	-1.9496203139	-1.2239430664	-0.058101
C	 0.0735194988	-2.7102698058	-0.0733050032	 0.200015
O	 0.112901701	-4.0632304657	-0.1031444845	-0.433117
C	 0.1732799706	-1.9627946041	 1.1029340137	 0.224914
F	 0.314412477	-2.6454001059	 2.2457402464	-0.080834
N	 0.138403122	-0.6641223234	 1.1597493622	-0.32169
H	 0.8726213452	 1.8788166361	 0.4848469234	 0.141558
H	-0.1649924424	 1.8916013403	-0.9657787897	 0.140303
H	-0.8759787946	 1.8237893705	 0.6685633118	 0.141558
H	-0.1567035545	-2.4417690439	-2.1891621803	 0.132136
H	 0.2176324274	-4.3819229654	 0.8017522932	 0.309908
50.3293	129.6634	229.4758	286.9438	309.2889	384.5305	402.971	464.9449	489.1947	548.9624	582.7493	666.928	753.0529	785.1665	809.7158	956.3371	959.0775	1037.0474	1065.0626	1177.7906	1259.1751	1274.5477	1288.6836	1390.1764	1413.5415	1441.7917	1478.4963	1479.0548	1505.6244	1612.7972	1656.7134	3046.8005	3102.6423	3157.8575	3170.4946	3799.9274
CC1=NC=C(O)C(F)=N1	Cc1ncc(O)c(F)n1	
InChI=1S/C5H5FN2O/c1-3-7-2-4(9)5(6)8-3/h2,9H,1H3	InChI=1S/C5H5FN2O/c1-3-7-2-4(9)5(6)8-3/h2,9H,1H3
