23
gdb 102811	2.46882	0.95804	0.80924	2.3903	83.6	-0.2491	-0.0237	0.2254	1533.8108	0.201477	-425.432108	-425.420699	-425.419755	-425.469352	39.959	
C	 0.2930660434	 0.9236340547	-1.092194466	-0.251452
O	-0.0505441051	 0.3019841079	 0.1260748387	-0.246514
C	-1.2246853912	-0.4920551842	 0.1028439406	 0.113756
C	-0.9796565318	-1.8649710433	-0.5629406786	-0.2865
C	-0.9954668557	-1.8417833678	-2.07436065	 0.151664
O	-0.1902436141	-2.3840497893	-2.7870242516	-0.24647
C	-1.7246120495	-0.6126383977	 1.557443932	 0.023236
C	-0.6992621289	-1.2924586947	 2.4767126228	-0.387191
C	-2.1238141461	 0.7651959338	 2.1020445473	-0.39774
H	 1.1334255379	 1.5908190271	-0.8843995746	 0.130763
H	 0.606374795	 0.203253575	-1.8602563669	 0.132082
H	-0.5412984398	 1.5203835051	-1.4920676394	 0.105128
H	-2.0063088545	 0.034742034	-0.4750959259	 0.060887
H	-0.0431944079	-2.3104562193	-0.2197514474	 0.133167
H	-1.8047034573	-2.5314420461	-0.26964833	 0.123947
H	-1.8597521484	-1.2841446205	-2.5104391345	 0.069799
H	-2.6265404121	-1.2389636314	 1.5187424738	 0.068842
H	-1.0814076276	-1.3431974655	 3.5009665701	 0.109972
H	-0.473525754	-2.3147245715	 2.1586274413	 0.111484
H	 0.237212006	-0.7281612046	 2.4900386968	 0.135447
H	-2.8933487736	 1.2334725182	 1.4783094991	 0.104474
H	-2.5223327253	 0.6808679533	 3.1178282674	 0.10986
H	-1.2583881192	 1.432800107	 2.127458695	 0.131358
53.9363	81.0185	84.2537	93.1375	170.3192	203.9753	215.2016	225.1222	251.8755	293.8532	327.8101	347.4123	423.794	435.9367	567.1523	606.5195	746.7232	830.2245	912.1581	929.976	959.8846	969.1711	1013.4534	1048.0658	1073.845	1130.3084	1138.0646	1163.979	1181.6458	1199.8617	1216.386	1240.1722	1262.9992	1342.4801	1352.2854	1378.2987	1390.7896	1397.8376	1420.2981	1429.8104	1441.064	1481.0476	1487.5999	1495.1265	1497.4155	1504.1544	1511.2334	1516.2735	1829.9189	2837.4686	2931.046	2982.9155	3006.5234	3014.5217	3033.926	3041.9224	3043.0181	3097.5784	3104.1833	3112.4179	3115.777	3119.622	3123.5515
COC(CC=O)C(C)C	CO[C@@H](CC=O)C(C)C	
InChI=1S/C7H14O2/c1-6(2)7(9-3)4-5-8/h5-7H,4H2,1-3H3	InChI=1S/C7H14O2/c1-6(2)7(9-3)4-5-8/h5-7H,4H2,1-3H3/t7-/m0/s1
