16
gdb 52276	3.39141	1.03518	0.82883	4.1119	67.02	-0.2684	-0.0061	0.2623	1323.6528	0.123887	-475.034193	-475.025543	-475.024598	-475.06909	29.824	
N	-0.4072314334	 1.132154836	 0.1588838006	-0.437952
C	-0.5353633156	-0.0944297963	 0.4134127098	 0.132476
O	-0.5613207877	-0.9833116485	-0.6118385102	-0.183344
C	-0.7529969962	-2.3498974705	-0.2875609188	-0.116012
C	-2.2356986834	-2.7068618807	-0.1677831129	-0.195446
C	-2.6052079144	-4.1766494918	 0.1095740546	-0.104816
O	-3.2331971099	-3.791173034	 1.3749087819	-0.233134
C	-2.9020907187	-2.4728416885	 1.1956139138	 0.455089
O	-3.0923705835	-1.5665429506	 1.9412346945	-0.318619
H	-0.3968052117	 1.6657245302	 1.0256929571	 0.234966
H	-0.6322680727	-0.5578084412	 1.4015310445	 0.107227
H	-0.3096027297	-2.9144261543	-1.1129122794	 0.133782
H	-0.2126205697	-2.6173798903	 0.6307303155	 0.11951
H	-2.7876725335	-2.2488377541	-0.9916744932	 0.138749
H	-3.3318394857	-4.6327527979	-0.5643024069	 0.137165
H	-1.7687202142	-4.8566644575	 0.289586449	 0.130357
45.5764	65.7829	122.6355	142.3874	180.6377	294.6529	343.1951	382.0518	499.6438	642.9348	706.2439	767.7739	811.4285	821.868	894.212	956.4617	968.6705	1036.3044	1042.3672	1078.7542	1118.3551	1136.4225	1147.9646	1164.1324	1213.0543	1255.8303	1295.1452	1342.3556	1367.1383	1404.3333	1432.0779	1501.9662	1516.6508	1748.9894	1930.648	3017.4433	3065.237	3071.3123	3088.3775	3102.1748	3136.0912	3520.7182
N=COCC1COC1=O	[NH][CH]OC[C@H]1COC1=O	
InChI=1S/C5H7NO3/c6-3-8-1-4-2-9-5(4)7/h3-4,6H,1-2H2	InChI=1S/C5H7NO3/c6-3-8-1-4-2-9-5(4)7/h3-4,6H,1-2H2/t4-/m0/s1
