18
gdb 98794	4.18692	1.02096	0.83355	4.7803	74.56	-0.2447	0.0011	0.2458	1336.0192	0.148096	-439.120403	-439.111846	-439.110901	-439.154196	31.279	
O	 0.0908663019	 1.3484964946	 0.1179912881	-0.426153
C	 0.074371255	-0.0465721658	 0.1012473796	-0.142571
C	-1.3737332485	-0.5417261476	 0.034227281	 0.378185
O	-2.2871234637	 0.2768121891	 0.0067138315	-0.404524
N	-1.5876201893	-1.8740179133	 0.0077550792	-0.099885
C	-0.5603110038	-2.9186309327	 0.0402760161	-0.209472
C	-1.3867101058	-4.1756067707	-0.0081517135	-0.07927
C	-2.6869438997	-3.9037357839	-0.0597857014	-0.077706
C	-2.9466674732	-2.424121005	-0.0538555381	-0.1973
H	-0.8503460183	 1.5960683682	 0.0829460752	 0.293867
H	 0.6320813771	-0.4420261689	-0.7638297762	 0.107022
H	 0.5570176857	-0.4623940776	 1.0012575572	 0.10694
H	 0.1292271514	-2.8416854243	-0.8136072948	 0.126542
H	 0.0539301601	-2.8607787227	 0.951296031	 0.126484
H	-0.9325309973	-5.1578677643	 4.9874*^-6	 0.114075
H	-3.4901842544	-4.6278845605	-0.1016595291	 0.114954
H	-3.5441674735	-2.0924908208	 0.8058681732	 0.134402
H	-3.4724304639	-2.0727294736	-0.9516532464	 0.134411
65.3399	112.7231	131.7284	165.1163	229.6099	341.7303	379.0034	405.3868	477.7343	528.9548	586.6429	694.2443	753.698	807.4374	834.1171	946.4556	966.0005	990.8186	1005.485	1024.8775	1033.5378	1041.4873	1132.2542	1142.1644	1191.643	1202.2851	1226.3848	1253.5052	1305.5389	1325.924	1361.1261	1382.7607	1425.6536	1487.3856	1508.0302	1512.1243	1519.4744	1695.6436	1745.225	2966.2296	2982.0209	2986.1443	3004.0865	3014.8348	3035.1618	3212.4719	3235.5701	3630.6784
OCC(=O)N1CC=CC1	OCC(=O)N1CC=CC1	
InChI=1S/C6H9NO2/c8-5-6(9)7-3-1-2-4-7/h1-2,8H,3-5H2	InChI=1S/C6H9NO2/c8-5-6(9)7-3-1-2-4-7/h1-2,8H,3-5H2
