20
gdb 84555	2.85303	1.74438	1.3475	2.2161	84.01	-0.2147	0.003	0.2177	1015.5898	0.172996	-365.913746	-365.906536	-365.905592	-365.944914	30.123	
C	 0.0701330663	 1.599657975	 0.0384001199	-0.404488
C	-0.0048152236	 0.0706793962	 0.0135361441	-0.188165
C	 0.7821741512	-0.5800268233	-1.1466746599	-0.028971
C	 1.5144246602	-1.6541383117	-0.8060188988	-0.184776
C	 1.1954175604	-2.0001419086	 0.6257773868	 0.028766
N	 2.0121271276	-1.8549840425	 1.9692519005	-0.185354
C	 2.178834587	-0.3935136426	 1.5444733518	-0.192158
C	 0.7002469759	-0.6611710552	 1.152403379	 0.305419
C	 0.6460893673	-1.3780135606	 2.5328391384	-0.265287
H	 1.1060785654	 1.9407146224	 0.1352156711	 0.122263
H	-0.3396666528	 2.0315982297	-0.8805497715	 0.114741
H	-0.4994140965	 2.0057963137	 0.8802972706	 0.118698
H	-1.0599003045	-0.2332182224	-0.0608597346	 0.085009
H	 0.7177569965	-0.1764449551	-2.1534063902	 0.096225
H	 2.1024788816	-2.2486004377	-1.4961025329	 0.098726
H	 0.5388062079	-2.8755765365	 0.6978790893	 0.078194
H	 2.3670092249	 0.2781767766	 2.3867750849	 0.091654
H	 2.9121507538	-0.2467789314	 0.7505691993	 0.106285
H	-0.0818329844	-2.1828305566	 2.6654725903	 0.10215
H	 0.7567398257	-0.7809853594	 3.4417320822	 0.10107
159.5669	214.754	228.8282	305.4183	366.3279	467.4556	511.2202	539.5117	611.51	664.6768	728.1737	764.0857	787.6116	844.4056	857.0139	893.1114	923.3503	955.2965	968.1851	997.3932	1011.8738	1030.0448	1052.6584	1078.6707	1093.38	1106.9008	1139.4375	1156.8835	1163.8703	1191.6888	1198.6178	1231.1182	1274.3533	1300.0008	1326.5514	1361.5239	1363.9955	1410.3083	1497.3926	1498.7772	1508.7072	1545.2317	1616.4765	2991.8911	3027.8585	3032.888	3050.9918	3059.6569	3100.3727	3105.4146	3121.2735	3131.2755	3168.4541	3199.9319
CC1C=CC2N3CC12C3	C[C@H]1C=C[C@H]2N3C[C@@]12C3	
InChI=1S/C8H11N/c1-6-2-3-7-8(6)4-9(7)5-8/h2-3,6-7H,4-5H2,1H3	InChI=1S/C8H11N/c1-6-2-3-7-8(6)4-9(7)5-8/h2-3,6-7H,4-5H2,1H3/t6-,7+/m0/s1
