18
gdb 32540	2.83948	1.42799	1.02299	5.5649	83.42	-0.206	-0.0144	0.1916	1175.0604	0.150399	-398.176434	-398.168149	-398.167205	-398.209405	31.408	
C	-0.2055374085	 1.4986976274	 0.047960092	-0.37228
C	 0.0742397133	-0.0143973585	 0.0235496949	-0.275917
C	 0.7653116844	-0.4700728067	-1.2324971924	 0.248839
C	 2.0619344136	-0.8337628905	-1.2428463007	-0.097086
N	 2.6740620306	-1.2384115157	-2.4182933358	-0.310892
C	 1.9423833403	-1.2688260429	-3.5693959416	 0.094223
N	 0.7026813553	-0.9512039211	-3.6582040527	-0.317755
C	 0.0110705777	-0.5317822188	-2.4983134009	 0.2651
N	-1.2328385422	-0.2179318796	-2.524922315	-0.537752
H	 0.7256763539	 2.0723832661	-0.0082935192	 0.102068
H	-0.8393708458	 1.7764714911	-0.7961207715	 0.153298
H	-0.7191457121	 1.7762407358	 0.9737425239	 0.107728
H	 0.6814800562	-0.2936697693	 0.8931255565	 0.083153
H	-0.8794825819	-0.5472691914	 0.0995627561	 0.128672
H	 2.6888074057	-0.8329018225	-0.3591971058	 0.124895
H	 3.642703152	-1.5097578088	-2.4253889171	 0.26697
H	 2.4865401012	-1.5926441991	-4.4553457346	 0.126695
H	-1.5758722438	-0.3327231455	-3.4805267762	 0.210041
93.5017	97.6164	185.1998	217.0543	313.5785	358.105	392.2101	452.9	481.9276	526.5495	570.2237	603.802	725.7087	782.3643	810.1658	880.6946	899.2158	903.9856	961.1324	978.2486	1023.607	1053.2137	1084.6692	1108.0571	1212.1571	1220.5046	1283.6228	1313.0998	1357.3545	1395.9522	1414.1496	1427.5725	1471.3774	1493.3515	1513.5487	1516.3314	1648.9209	1669.7252	1718.0727	3027.5571	3038.0201	3077.4365	3103.4174	3141.9353	3144.7954	3204.2648	3461.3504	3659.3788
CCC1=CNC=NC1=N	CCC1=C(N=CNC1)[NH]	
InChI=1S/C6H9N3/c1-2-5-3-8-4-9-6(5)7/h3-4H,2H2,1H3,(H2,7,8,9)	InChI=1S/C6H10N3/c1-2-5-3-8-4-9-6(5)7/h4,7H,2-3H2,1H3,(H,8,9)
