21
gdb 111636	2.0873	1.66702	1.31977	0.9262	84.02	-0.2152	0.025	0.2402	1117.6688	0.182002	-387.079687	-387.070705	-387.069761	-387.113038	34.243	
C	 0.3326538474	 0.9718153766	-0.311549605	-0.230164
O	-0.3702716012	 0.0393044636	 0.4837737761	-0.225833
C	 0.4437512309	-0.6395042054	 1.3773226859	 0.078918
C	 0.0362929168	-2.0179945987	 1.7899621576	-0.158077
C	-0.9739471034	-2.7442443773	 0.8988988869	-0.271193
C	-0.2450793853	-2.902703507	-0.4172261526	-0.070506
C	 0.9975101158	-2.4205241609	-0.3623742993	-0.125491
C	 1.3220575987	-1.8229973939	 0.9673177575	 0.248695
C	 2.7151957565	-1.9584405042	 1.5364178811	-0.485903
H	 1.0805008529	 0.4758798945	-0.9459578145	 0.108872
H	-0.4012568723	 1.4730721711	-0.9470057224	 0.124911
H	 0.8433137792	 1.7261185651	 0.3064862019	 0.102646
H	 0.8732455747	-0.0006678528	 2.1539523788	 0.074425
H	 0.0796313604	-2.267281465	 2.8445854162	 0.082097
H	-1.2613184813	-3.7138236768	 1.3254611557	 0.101246
H	-1.8972981182	-2.1641910231	 0.7788211606	 0.121967
H	-0.7152097255	-3.3308964991	-1.2954476124	 0.089942
H	 1.710972196	-2.4223193729	-1.1798393796	 0.085358
H	 3.4589945478	-1.480287334	 0.8876048636	 0.114864
H	 2.7893961602	-1.4888528063	 2.5226392232	 0.113792
H	 3.0003981697	-3.0109199234	 1.6477589206	 0.119433
99.6269	146.1934	175.9363	186.0331	210.8029	234.8899	299.3934	341.9734	415.7389	534.4808	585.8074	610.6756	722.1832	768.3963	775.519	828.9398	864.8139	934.5376	946.7453	958.342	962.5383	1022.2359	1042.7834	1069.7168	1091.2509	1110.6657	1126.9622	1180.254	1183.4063	1196.4063	1227.7197	1255.7605	1278.8858	1310.1304	1345.4218	1374.7198	1415.3995	1430.9925	1468.3653	1485.5537	1487.9033	1489.1844	1499.8006	1505.1459	1672.6784	2983.4217	3019.619	3021.2438	3037.8243	3053.8368	3059.9134	3078.5467	3094.7607	3117.4472	3166.5393	3176.7867	3204.6474
COC1C2CC=CC12C	CO[C@H]1[C@H]2CC=C[C@@]12C	
InChI=1S/C8H12O/c1-8-5-3-4-6(8)7(8)9-2/h3,5-7H,4H2,1-2H3	InChI=1S/C8H12O/c1-8-5-3-4-6(8)7(8)9-2/h3,5-7H,4H2,1-2H3/t6-,7+,8-/m1/s1
