19
gdb 120314	3.32252	0.95488	0.85103	1.3879	72.82	-0.2283	0.0608	0.2891	1413.4038	0.157191	-460.08963	-460.080405	-460.079461	-460.124212	33.593	
C	-0.0049765298	 1.3208216984	 0.1922309665	-0.223979
O	-0.0703765768	-0.0839980177	 0.1788609439	-0.232651
C	-1.3509265948	-0.5671387285	-0.1759139069	-0.092345
C	-1.3051849955	-2.0714022104	-0.1330660697	-0.081246
C	-1.6036253524	-2.887390755	 1.1027923357	-0.000535
O	-2.6476139105	-2.2802167319	 1.8742437085	-0.280393
C	-3.5954753995	-2.4513963888	 0.7882909579	-0.153289
C	-2.4957926864	-2.990723233	-0.1255080455	 0.273287
O	-2.6662240756	-3.9233889074	-1.1249146767	-0.445833
H	 1.0128924533	 1.5989855804	 0.476610504	 0.125616
H	-0.2269186214	 1.7519993252	-0.7976238247	 0.100613
H	-0.7086144774	 1.7569227901	 0.919364649	 0.104475
H	-2.1095301528	-0.1885273159	 0.5259240811	 0.100403
H	-1.6250847113	-0.2178141587	-1.1863118926	 0.086938
H	-0.4940152901	-2.5074847785	-0.712772599	 0.108522
H	-0.9108921081	-3.5482196171	 1.6095626082	 0.110064
H	-4.3411508742	-3.2149380243	 1.047779301	 0.100147
H	-4.1042342607	-1.5211437672	 0.5121376972	 0.111628
H	-3.089014146	-4.7032923596	-0.7466667377	 0.288579
59.0207	85.7833	129.3877	209.7335	242.254	265.6105	292.3693	325.4573	378.0854	414.3041	489.254	619.6504	642.7462	770.0632	849.9713	913.6547	930.6102	979.911	988.5531	995.4998	1034.0358	1071.1818	1085.6476	1117.5335	1146.0038	1160.0163	1183.3393	1201.0569	1230.582	1258.1046	1266.7231	1296.7837	1344.8691	1346.0864	1422.512	1477.7725	1485.1618	1494.1017	1500.7104	1516.6193	1526.1967	2953.875	2967.5815	3004.7227	3008.8743	3011.652	3068.9763	3111.903	3146.6036	3192.3523	3785.5209
COCC1C2OCC12O	COC[C@H]1[C@H]2OC[C@@]12O	
InChI=1S/C6H10O3/c1-8-2-4-5-6(4,7)3-9-5/h4-5,7H,2-3H2,1H3	InChI=1S/C6H10O3/c1-8-2-4-5-6(4,7)3-9-5/h4-5,7H,2-3H2,1H3/t4-,5+,6+/m0/s1
