20
gdb 99897	2.32001	1.28432	1.14202	3.5371	78.67	-0.2498	0.0209	0.2707	1212.6917	0.170531	-399.30836	-399.298344	-399.2974	-399.343119	36.625	
C	 0.0875631114	 1.4782509188	 0.2267003	-0.400478
C	 0.0435703192	-0.0257691659	-0.0465893988	-0.183593
C	 0.6816634533	-0.4645177519	-1.3912392157	 0.054305
N	-0.0126923776	 0.2136590938	-2.4967176805	-0.515895
C	 2.0965513927	-0.0372397989	-1.4156568849	 0.309451
N	 3.2164869212	 0.2487580211	-1.4203034388	-0.358877
C	 0.6180239479	-1.9965224444	-1.50504287	-0.006379
C	 1.55861907	-2.7740515397	-2.3466030381	-0.266988
N	 1.5924488758	-2.8913754069	-0.8753908984	-0.324697
H	 1.1189457461	 1.8350676432	 0.3042297885	 0.140467
H	-0.4012680236	 2.0376985989	-0.5737842682	 0.13802
H	-0.4180484654	 1.7050299803	 1.1696691783	 0.116916
H	 0.5385397954	-0.5787569155	 0.7582897701	 0.12401
H	-0.9959669982	-0.3782237275	-0.0675100132	 0.101857
H	 0.3366816029	-0.1347586138	-3.3852514286	 0.241059
H	-0.9996197868	-0.0274766574	-2.4556684406	 0.235727
H	-0.4097564497	-2.3493796474	-1.4221643864	 0.093809
H	 1.2098616737	-3.6591714277	-2.8705015373	 0.122993
H	 2.3704878238	-2.2418021582	-2.8353007695	 0.133316
H	 2.381754278	-2.3552566209	-0.517542388	 0.244978
77.9002	102.9038	148.3524	159.8533	190.0934	223.1283	252.2836	272.5441	327.4148	380.494	437.3686	461.9758	593.2805	635.9957	659.6193	787.3292	826.1092	866.1804	891.2526	919.4285	962.9535	1001.6245	1012.1288	1034.3193	1065.4602	1109.1101	1144.2369	1162.8325	1180.71	1225.5449	1259.8483	1284.8684	1306.7113	1344.4156	1365.3756	1406.8605	1417.2419	1481.1435	1493.7815	1509.03	1509.8862	1652.2873	2352.6391	3026.4368	3049.1562	3079.5197	3107.6859	3113.2195	3115.539	3135.4121	3199.3608	3480.148	3483.8984	3567.4646
CCC(N)(C#N)C1CN1	CC[C@@](N)(C#N)[C@H]1CN1	
InChI=1S/C6H11N3/c1-2-6(8,4-7)5-3-9-5/h5,9H,2-3,8H2,1H3	InChI=1S/C6H11N3/c1-2-6(8,4-7)5-3-9-5/h5,9H,2-3,8H2,1H3/t5-,6-/m1/s1
