21
gdb 78225	2.32293	1.48695	1.22553	1.554	78.34	-0.2412	0.0657	0.3069	1139.6278	0.181104	-424.195318	-424.186022	-424.185078	-424.228432	36.689	
C	-0.5576361621	 1.2445937294	 0.2544604613	-0.423972
C	-0.1821902867	-0.2106354121	 0.4655914448	-0.013991
C	 1.0335219367	-0.8989256442	-0.0849843301	-0.128812
C	 0.8180430517	-0.792832909	 1.4336893241	-0.103015
C	 2.1144803718	 0.0078290306	 1.594112773	 0.357891
C	 2.1382137228	 1.3135827513	 2.3726602802	-0.479204
O	 3.0655281765	-0.905807527	 2.1532037124	-0.474606
C	 2.284305359	-0.001428793	 0.0118077479	 0.089004
O	 3.4841522034	-0.5838500015	-0.4174132494	-0.445696
H	 0.3074997377	 1.9006185325	 0.1411510725	 0.123857
H	-1.1569161597	 1.3449957195	-0.6570238493	 0.117857
H	-1.1583750976	 1.6236603943	 1.0885931878	 0.117599
H	-1.0554126658	-0.8605418369	 0.4166178373	 0.091115
H	 0.9802378725	-1.7705204095	-0.7270787734	 0.086376
H	 0.5378098436	-1.5671914024	 2.1391460261	 0.087506
H	 1.930803719	 1.1278811644	 3.431547817	 0.125958
H	 3.1250530182	 1.7890017562	 2.2958350152	 0.111799
H	 1.4013625241	 2.0266869456	 1.9992253086	 0.126977
H	 3.8849892059	-0.4163460389	 2.2907050141	 0.282782
H	 2.2122699769	 0.96973348	-0.487614145	 0.073711
H	 3.665321492	-1.2886695892	 0.2216762749	 0.276865
135.0371	179.7551	206.71	212.0672	242.9543	250.6941	311.2978	334.8964	352.3781	401.3091	459.9255	579.3278	597.9852	608.3469	636.4707	728.1789	800.2292	828.6614	894.4805	927.3187	948.7002	962.893	990.3296	1033.2038	1061.7676	1080.1241	1114.5146	1128.1941	1144.3306	1149.6476	1180.2022	1214.5254	1245.3489	1261.7708	1314.3012	1335.688	1392.1821	1406.8101	1414.2104	1441.0379	1456.4973	1485.5719	1493.1071	1503.9631	1507.1346	3021.9458	3035.3682	3057.0108	3089.336	3090.1953	3108.4704	3129.4278	3138.7796	3169.8483	3182.0659	3724.504	3794.3148
CC1C2C1C(C)(O)C2O	C[C@H]1[C@@H]2[C@H]1[C@@](C)(O)[C@H]2O	
InChI=1S/C7H12O2/c1-3-4-5(3)7(2,9)6(4)8/h3-6,8-9H,1-2H3	InChI=1S/C7H12O2/c1-3-4-5(3)7(2,9)6(4)8/h3-6,8-9H,1-2H3/t3-,4+,5-,6-,7+/m0/s1
