16
gdb 49544	5.8244	0.94891	0.9357	2.0166	71.87	-0.2452	-0.0471	0.1981	1232.0967	0.123284	-437.832462	-437.824625	-437.823681	-437.865367	28.593	
O	-0.7932572348	 0.9541485164	 0.6961312529	-0.242738
C	-0.0344835025	 1.0396793639	-0.2375886611	 0.12053
C	 1.2667181319	 1.7901960455	-0.2376541298	-0.063969
C	 1.3136001526	 3.3076516522	-0.6696449358	-0.043504
C	 0.6275908069	 3.6713769252	 0.6811571833	-0.237832
C	 1.7318117274	 2.6159217174	 0.9962695265	-0.047632
N	 2.6454219861	 3.3413928345	 0.0293825215	-0.08336
C	 3.3543537433	 4.4917124071	 0.2848263997	 0.13235
O	 3.3986807964	 5.4535566506	-0.448484522	-0.309994
H	-0.2557709189	 0.5272460496	-1.2012304954	 0.090148
H	 2.0516461291	 1.1995272639	-0.7190009149	 0.110007
H	 1.1756590263	 3.7320044476	-1.6614426526	 0.122155
H	 0.8202445379	 4.6836154458	 1.0379840404	 0.126546
H	-0.4061612227	 3.3636942912	 0.8312923941	 0.138173
H	 2.0823310112	 2.2432618634	 1.9575982904	 0.110028
H	 3.9665230198	 4.3984886358	 1.2053127728	 0.079091
80.5201	107.7236	145.9709	223.5114	267.9958	316.6523	405.572	545.1828	648.8982	701.3305	757.3223	781.1237	819.3926	880.032	898.7559	967.6942	1001.9977	1007.0605	1033.7414	1062.7298	1077.4622	1100.9161	1130.0921	1165.4322	1188.5257	1210.1361	1216.3449	1250.3102	1332.3661	1382.8287	1417.485	1426.6026	1513.8889	1789.9947	1819.2278	2878.1435	2925.3857	3079.4986	3093.2622	3137.258	3155.8472	3171.2228
O=CC1C2CC1N2C=O	O=C[C@H]1[C@H]2C[C@@H]1N2C=O	
InChI=1S/C6H7NO2/c8-2-4-5-1-6(4)7(5)3-9/h2-6H,1H2	InChI=1S/C6H7NO2/c8-2-4-5-1-6(4)7(5)3-9/h2-6H,1H2/t4-,5+,6-
