16
gdb 31296	2.21147	1.55218	0.92064	4.297	82.6	-0.1941	-0.0083	0.1857	1217.2018	0.126277	-396.978196	-396.969593	-396.968649	-397.011678	31.364	
C	 0.0515850192	 1.4433456887	 0.0854896021	-0.327463
N	-0.1793090389	 0.0278927181	-0.1280050495	-0.404023
C	 0.5190546301	-0.6470136956	-1.104191723	 0.262074
C	 0.6682740296	-2.036617144	-1.1879789078	 0.126779
N	 1.3921357115	-2.3062000743	-2.3461058451	-0.321556
C	 1.6965760815	-1.1425572654	-2.9681551629	-0.064356
C	 1.1795619354	-0.0925813747	-2.2340395078	-0.227969
C	 0.2149463667	-3.0295897918	-0.3099413819	 0.184625
N	-0.1686753997	-3.8308142054	 0.4405379339	-0.377457
H	 1.1009126431	 1.6872109465	 0.3128527446	 0.11748
H	-0.2449198463	 2.013653199	-0.801333607	 0.134997
H	-0.5713806077	 1.7809668975	 0.9164299375	 0.131147
H	-0.3482873032	-0.5085896499	 0.7094930495	 0.251068
H	 1.6459862477	-3.2282643024	-2.6535002387	 0.276502
H	 2.260402109	-1.1345858093	-3.8873283006	 0.13312
H	 1.2649310921	 0.9522337031	-2.4835529434	 0.105032
86.3766	118.9461	155.1145	169.5314	235.839	309.0907	391.5383	403.3937	499.597	520.5418	559.6382	629.3926	630.7843	703.6121	739.0453	753.8637	822.4033	913.2598	1042.5238	1109.8079	1115.4809	1154.8654	1162.3457	1221.9884	1268.6279	1340.964	1425.4923	1461.1427	1483.0282	1491.168	1500.1616	1522.9898	1542.8555	1626.4604	2306.5185	2983.9203	3065.928	3123.9626	3258.9661	3276.6318	3608.8753	3692.3505
CNC1=C(NC=C1)C#N	CNc1c([nH]cc1)C#N	
InChI=1S/C6H7N3/c1-8-5-2-3-9-6(5)4-7/h2-3,8-9H,1H3	InChI=1S/C6H7N3/c1-8-5-2-3-9-6(5)4-7/h2-3,8-9H,1H3
