14
gdb 27488	2.10294	1.91861	1.00959	4.6188	68.84	-0.2656	-0.0509	0.2147	1098.6374	0.101644	-470.084607	-470.076748	-470.075803	-470.117627	28.432	
C	-0.0483160383	 1.4884588603	 0.0137277189	-0.490023
C	 0.0027012291	-0.0070075158	-0.0515090422	 0.395654
N	-0.1436510382	-0.627077421	-1.1651413789	-0.303345
C	-0.0882352863	-2.0066793309	-1.1727598015	 0.425903
N	-0.2221018207	-2.6907292478	-2.222261828	-0.499022
O	 0.1296356208	-2.6838734353	 0.0608021951	-0.253651
C	 0.2854617139	-2.04528132	 1.2419054615	 0.488098
O	 0.4682797701	-2.6278888337	 2.2707833823	-0.358457
N	 0.2137614243	-0.6619704369	 1.1433793761	-0.405182
H	 0.8921567246	 1.8890059249	 0.4081964963	 0.152689
H	-0.2196589318	 1.8835223452	-0.9861702649	 0.175597
H	-0.8539542758	 1.8177189522	 0.679346193	 0.152616
H	-0.1486215521	-3.6852653054	-2.0098988237	 0.239053
H	 0.3267854904	-0.1582435357	 2.009728186	 0.280069
77.8141	120.3613	131.5619	205.2405	305.1507	384.9096	508.9281	545.2596	545.4325	591.4983	609.4	645.5319	754.4894	771.0614	877.0334	882.9325	965.3807	992.566	1049.3536	1062.4887	1113.0387	1188.3114	1264.654	1355.4628	1405.9254	1462.1853	1481.0979	1496.4175	1719.3219	1754.879	1886.0051	3041.2469	3098.5704	3174.0127	3509.2213	3639.935
CC1=NC(=N)OC(=O)N1	C[C]1N=C([NH])OC(=O)N1	
InChI=1S/C4H5N3O2/c1-2-6-3(5)9-4(8)7-2/h1H3,(H2,5,6,7,8)	InChI=1S/C4H5N3O2/c1-2-6-3(5)9-4(8)7-2/h1H3,(H2,5,6,7,8)
