19
gdb 96726	2.36365	1.26587	0.98576	2.8159	78.48	-0.2447	-0.0291	0.2156	1267.9583	0.158047	-456.373039	-456.363023	-456.362079	-456.408475	35.631	
C	-0.9596913415	 1.6880882253	 0.9863546574	-0.330339
N	-0.8591660357	 0.3110293502	 0.5621275985	-0.282001
C	 0.171663362	-0.4088034429	 0.7431197371	 0.367022
N	-0.0015263189	-1.7315849379	 0.2443640421	-0.319053
C	 0.777940226	-2.8447975613	 0.2350176904	 0.173242
O	 1.9128529633	-2.9699551146	 0.6617320588	-0.340429
C	 1.4952796965	-0.0376666276	 1.4151355494	 0.044479
C	 1.5724934499	-0.5959590312	 2.8452551446	-0.420924
O	 2.6134626932	-0.3695678079	 0.6284315313	-0.441833
H	-0.0148836938	 2.1838052296	 1.2421805348	 0.120518
H	-1.4424686146	 2.263573876	 0.1895536738	 0.134513
H	-1.6192122635	 1.7490013003	 1.8611473339	 0.134036
H	-0.9213780039	-1.8293239647	-0.167778474	 0.257619
H	 0.2407036981	-3.6918682356	-0.2269301296	 0.108398
H	 1.504612468	 1.0529088566	 1.477824616	 0.100484
H	 1.5829590602	-1.6886401379	 2.8424079995	 0.141798
H	 2.4993755266	-0.2466913651	 3.308456277	 0.129919
H	 0.7269884913	-0.2520088711	 3.4500238474	 0.11539
H	 2.6855629968	-1.3407656701	 0.6462668414	 0.307164
46.3392	78.8092	125.3057	194.9586	222.3716	238.8801	254.5065	271.8753	296.2045	344.3212	410.8503	489.6043	572.7135	677.6022	689.9025	713.819	755.4507	852.5603	908.8684	1006.8603	1026.974	1062.3128	1084.0466	1123.6375	1129.2959	1164.1433	1189.436	1299.763	1328.1767	1345.764	1396.7269	1444.046	1447.2166	1467.3178	1481.3074	1490.278	1503.98	1511.7672	1521.5471	1735.449	1779.4577	2981.7878	3008.1424	3041.4384	3065.0322	3080.9792	3086.736	3115.4222	3133.7019	3575.1768	3601.6599
CN=C(NC=O)C(C)O	CN=C(NC=O)[C@@H](C)O	
InChI=1S/C5H10N2O2/c1-4(9)5(6-2)7-3-8/h3-4,9H,1-2H3,(H,6,7,8)	InChI=1S/C5H10N2O2/c1-4(9)5(6-2)7-3-8/h3-4,9H,1-2H3,(H,6,7,8)/t4-/m1/s1
