21
gdb 77965	3.03867	1.21358	0.999	2.5744	84.39	-0.2447	-0.0242	0.2205	1260.8389	0.181253	-387.03961	-387.030205	-387.029261	-387.074807	34.395	
C	-0.1355348772	 1.4723539347	-0.1187928932	-0.454468
C	 0.0564313015	-0.0444878622	-0.1204588475	 0.063974
C	 1.1908714203	-0.7430610572	-0.9331703819	-0.112646
C	 2.2213972819	-0.4206587493	 0.2094754536	 0.066888
C	 2.8852122436	 0.9333661458	 0.4568603056	-0.453183
C	 0.9030630356	-0.8647577878	 0.9257633453	-0.099002
C	 0.8722814846	-2.0423046042	-0.0927995962	-0.056851
C	-0.3633837131	-2.8507926665	-0.3636125312	 0.109476
O	-1.4216029818	-2.7562833793	 0.2091673257	-0.247243
H	 0.740063537	 2.0380668592	-0.4352384869	 0.122749
H	-0.9462811571	 1.7301064244	-0.8084310809	 0.115901
H	-0.4337928582	 1.8341031776	 0.8718203264	 0.120538
H	-0.9228274831	-0.500190865	-0.2669320393	 0.099298
H	 1.3641619547	-0.704719823	-2.0113526824	 0.070848
H	 3.0029243554	-1.1884346871	 0.2560259167	 0.065565
H	 2.2206976314	 1.6867537629	 0.876917366	 0.128635
H	 3.707161025	 0.8016697905	 1.1685994465	 0.115566
H	 3.3211950573	 1.3393365005	-0.4632388047	 0.118025
H	 0.7251766855	-0.9442824368	 1.9995993011	 0.074838
H	 1.7223036681	-2.734839855	-0.0453892953	 0.079459
H	-0.2225751712	-3.6153752122	-1.1647198173	 0.071632
30.0678	84.4943	118.3314	156.2876	213.9036	237.7703	326.7395	351.3559	371.7812	422.8011	606.4526	692.5711	751.9301	771.7339	788.745	797.441	835.4381	902.5462	1002.6999	1016.5506	1019.6052	1028.396	1051.7277	1060.2301	1093.1256	1106.0951	1128.3745	1142.2052	1161.378	1192.5483	1217.4281	1223.7926	1242.9479	1286.3174	1380.2721	1406.6292	1418.3629	1428.7577	1439.3334	1475.8075	1493.3081	1498.9477	1502.78	1528.3693	1816.0824	2845.6036	3017.6817	3030.116	3037.6154	3038.8839	3082.9491	3087.4415	3088.8221	3099.3415	3110.6928	3139.719	3159.4834
CC1C2C(C)C1C2C=O	C[C@H]1[C@H]2[C@@H](C)[C@@H]1[C@H]2C=O	
InChI=1S/C8H12O/c1-4-7-5(2)8(4)6(7)3-9/h3-8H,1-2H3	InChI=1S/C8H12O/c1-4-7-5(2)8(4)6(7)3-9/h3-8H,1-2H3/t4-,5+,6-,7-,8+
