16
gdb 66668	4.27153	1.26309	1.19031	1.996	81.01	-0.2165	0.0184	0.2349	1075.9484	0.122239	-363.461723	-363.454035	-363.453091	-363.493555	30.303	
C	-0.0203936744	 1.4748435315	 0.0559908206	-0.518164
C	-0.039212231	-0.0096655952	-0.02782281	 0.388033
C	-0.073365754	-0.9984808037	-1.1689058741	-0.167994
C	 0.8148703343	-1.9228787172	-0.308124792	-0.115347
N	 0.87425768	-0.9244071414	 0.8072179407	-0.24466
C	-0.2281882553	-1.9788889274	 0.766078098	 0.351776
C	-0.4864204963	-2.9098200711	 1.7983656435	 0.02965
C	-0.7369378395	-3.7126909055	 2.6595939787	-0.367741
C	-1.1422042661	-1.0346328725	-0.0637440287	-0.242987
H	 0.9658602933	 1.8699835248	-0.2103187258	 0.133307
H	-0.7577352554	 1.9048209203	-0.6301095925	 0.126302
H	-0.2602321451	 1.8107338142	 1.0705697942	 0.135596
H	-0.1989789168	-0.8613542913	-2.2333132626	 0.099561
H	 1.6315495363	-2.6015731917	-0.5236952001	 0.107124
H	-0.9481573045	-4.4166114581	 3.4259117192	 0.182928
H	-2.2151220855	-0.9314226358	-0.1388577092	 0.102616
121.5811	150.8874	203.413	262.6639	281.8032	474.5459	489.0394	514.8446	586.2755	611.6881	671.8104	679.5658	752.7182	773.9906	815.3707	847.723	870.3347	872.5932	897.2955	924.9312	990.5025	1013.1844	1051.5169	1097.1804	1110.4635	1140.4274	1186.8035	1219.7874	1247.8257	1375.2655	1400.4889	1461.0372	1473.0162	1496.5924	2231.9951	3028.8787	3096.3792	3103.5618	3184.187	3216.0477	3226.1363	3502.2434
CC12C3C4N1C4(C#C)C23	C[C@@]12[C@H]3[C@H]4N1[C@@]4(C#C)[C@@H]23	
InChI=1S/C8H7N/c1-3-8-5-4-6(8)9(8)7(4,5)2/h1,4-6H,2H3	InChI=1S/C8H7N/c1-3-8-5-4-6(8)9(8)7(4,5)2/h1,4-6H,2H3/t4-,5-,6-,7+,8+,9?/m1/s1
