14
gdb 17422	3.02045	2.78088	1.84707	3.2945	60.74	-0.2276	-0.0021	0.2255	731.531	0.105991	-382.492194	-382.485609	-382.484665	-382.522722	25.324	
C	-0.0949203603	 1.5477565811	 0.0610202664	-0.518309
C	 0.0630165212	 0.0655977821	 0.0919277566	 0.272976
O	-1.1770228246	-0.7089518409	 0.1656833577	-0.320945
C	-0.4088995631	-1.7418521384	 0.7836032648	 0.104467
C	 0.8967482237	-1.9187331647	 0.0043266064	-0.259935
C	 0.7238136212	-0.8835075595	 1.1740107544	-0.194835
C	 0.9074793492	-0.749565796	-0.9295136411	 0.451135
O	 1.5193396289	-0.4528437029	-1.9154444061	-0.337392
H	 0.8825940628	 2.0290513562	-0.0339917176	 0.140892
H	-0.6987677753	 1.8304558682	-0.8067277518	 0.151354
H	-0.5907583368	 1.9128504375	 0.9641223306	 0.135236
H	-0.9169183228	-2.5579143573	 1.2803917605	 0.126945
H	 1.4835251933	-2.826072925	-0.0023195503	 0.119449
H	 1.3427275426	-0.7351211406	 2.0461287695	 0.128963
146.7058	185.5833	218.6672	300.2128	445.1136	516.6838	642.5724	673.1893	736.2286	757.5499	785.2451	803.0847	831.0592	863.5048	894.3095	933.9505	989.6732	1030.7432	1049.256	1093.1847	1111.5595	1136.8348	1174.2808	1268.3196	1339.3203	1364.8279	1422.2268	1473.7924	1485.6384	1884.2236	3046.8796	3120.6338	3126.9141	3207.5941	3227.9856	3237.3156
CC12OC3C(C13)C2=O	C[C@]12O[C@H]3[C@H]([C@@H]13)C2=O	
InChI=1S/C6H6O2/c1-6-3-2(5(6)7)4(3)8-6/h2-4H,1H3	InChI=1S/C6H6O2/c1-6-3-2(5(6)7)4(3)8-6/h2-4H,1H3/t2-,3+,4-,6-/m0/s1
