18
gdb 10506	3.52402	1.29698	1.08289	2.7096	68.31	-0.248	-0.025	0.223	1127.5598	0.150901	-384.932176	-384.923237	-384.922292	-384.9665	31.532	
C	-0.8503219121	 1.1314416893	-0.1754271038	-0.386592
C	 0.0311727105	-0.1044217672	 0.0430048799	-0.246052
C	 0.6191726515	-0.6661450867	-1.2401848535	 0.398611
C	 1.6185833648	 0.2260742123	-1.9682375837	-0.356958
C	 2.1170032664	-0.3295573413	-3.2871528981	 0.145543
O	 3.2729053036	-0.325194232	-3.627099864	-0.246506
C	 0.6626249301	-2.1234703542	-1.4344628786	-0.233758
O	-0.3334401925	-1.3282736	-2.0888706884	-0.269473
H	-0.2781235869	 1.9847545589	-0.5528266421	 0.119475
H	-1.6466612238	 0.9114311058	-0.8927000171	 0.136446
H	-1.3159206416	 1.4416112399	 0.7642825613	 0.11966
H	 0.8495988111	 0.1306605926	 0.7353260936	 0.104211
H	-0.5649289691	-0.893291114	 0.5140802982	 0.107777
H	 1.1283551114	 1.1832004704	-2.1989396862	 0.133391
H	 2.4803870105	 0.4457621804	-1.330429347	 0.128688
H	 1.3188126601	-0.7314090371	-3.9457304818	 0.103608
H	 1.4116595502	-2.5671516032	-2.090355703	 0.123829
H	 0.2910886957	-2.7832314138	-0.6520078858	 0.118099
62.8361	66.8324	94.7797	196.6433	216.4954	254.2774	348.5305	358.6548	443.0289	469.9398	533.2441	690.6483	773.8221	805.7009	859.7514	900.9751	938.3709	1000.5962	1035.3662	1062.2574	1085.659	1117.8138	1134.8182	1170.1112	1208.0179	1231.9097	1290.8451	1338.0624	1352.8595	1409.0366	1412.9391	1424.7775	1453.9846	1475.8183	1502.5026	1508.1396	1533.1606	1829.2146	2919.7596	3015.761	3029.8315	3041.8499	3072.2136	3079.7746	3091.7693	3110.2785	3118.3029	3165.8726
CCC1(CC=O)CO1	CC[C@@]1(CC=O)CO1	
InChI=1S/C6H10O2/c1-2-6(3-4-7)5-8-6/h4H,2-3,5H2,1H3	InChI=1S/C6H10O2/c1-2-6(3-4-7)5-8-6/h4H,2-3,5H2,1H3/t6-/m1/s1
