18
gdb 47729	2.5314	1.69213	1.15351	1.6432	72.51	-0.256	-0.0302	0.2258	1065.4122	0.149453	-439.083116	-439.075374	-439.07443	-439.115447	29.843	
O	 0.0629377132	 0.0205413023	 0.3099639546	-0.333934
C	 0.0022526002	 1.2129616586	 0.0952372487	 0.320218
C	-1.306868294	 1.9614979755	-0.0827294059	-0.30962
C	-1.1653475366	 3.1395849655	-1.059409629	-0.094507
O	-0.0779343002	 3.969213357	-0.6975636569	-0.234662
C	 1.1588184027	 3.298688063	-0.8517412282	-0.168802
C	 1.2453395779	 2.0586050371	 0.0267270199	 0.216551
C	 2.0997580306	 2.0157393736	 1.2576155043	-0.257774
N	 2.527615279	 1.3555198845	 0.0274739701	-0.349894
H	-2.087241625	 1.2586101485	-0.3872019702	 0.12634
H	-1.5812112112	 2.3608742147	 0.902743974	 0.139659
H	-1.0352814246	 2.7664706276	-2.0888517641	 0.099825
H	-2.0609421734	 3.7658478007	-1.0406388381	 0.118436
H	 1.3057120354	 3.001306612	-1.9033458115	 0.102922
H	 1.9458662296	 4.0106355692	-0.5920618009	 0.119658
H	 2.6583089527	 2.9072577996	 1.531498904	 0.126456
H	 1.7600103883	 1.4015217443	 2.0872276132	 0.130141
H	 2.3234020354	 0.3574384062	 0.0972968358	 0.248988
88.468	133.7969	251.1485	287.0266	299.8049	379.3994	399.8238	444.1715	513.2734	588.6919	661.769	713.8808	832.4755	863.7493	896.3726	941.8222	954.0191	996.6909	1000.321	1041.1115	1081.8079	1091.1082	1115.784	1133.1403	1182.1492	1224.2377	1241.4645	1292.0043	1309.4106	1341.8569	1346.5022	1360.9072	1402.4721	1418.6199	1445.3903	1491.4889	1502.1377	1508.7	1790.4045	2970.1108	2974.3328	3032.0617	3094.2757	3099.3177	3103.6788	3105.2943	3197.9424	3457.6803
O=C1CCOCC11CN1	O=C1CCOC[C@]21CN2	
InChI=1S/C6H9NO2/c8-5-1-2-9-4-6(5)3-7-6/h7H,1-4H2	InChI=1S/C6H9NO2/c8-5-1-2-9-4-6(5)3-7-6/h7H,1-4H2/t6-/m0/s1
