23
gdb 73265	2.29565	1.63989	1.32137	1.2603	84.7	-0.241	0.0809	0.3219	1109.071	0.208139	-388.294264	-388.286031	-388.285087	-388.326435	33.646	
C	-0.0077447337	 1.5446434557	-0.0213360544	-0.474511
C	-0.0385590675	 0.0210601117	 0.0189293824	 0.340628
C	-1.3443210555	-0.652121653	 0.5418062395	-0.267337
C	-0.473390317	-1.6683068853	 1.3271913689	-0.24525
C	 0.711246619	-0.672575135	 1.2126235511	-0.009487
C	 2.1259605557	-1.1731565941	 0.9567408191	-0.113738
O	 2.2729995876	-1.7761714852	-0.3179213552	-0.241894
C	 1.9126984948	-0.8815565203	-1.3572281302	-0.079074
C	 0.4115852832	-0.592130655	-1.3291961122	-0.255365
H	 0.9859751208	 1.9234141194	-0.2893934646	 0.112213
H	-0.7165041017	 1.9314058712	-0.7635005542	 0.112912
H	-0.2739981617	 1.9726467021	 0.951173251	 0.108304
H	-1.8913610101	 0.0128739108	 1.2177271908	 0.092835
H	-2.0421397071	-1.0393467829	-0.2062136057	 0.091223
H	-0.8006543492	-1.9469199281	 2.3315122939	 0.092189
H	-0.2839973658	-2.5809367098	 0.7554917723	 0.112161
H	 0.7232382163	-0.0035896547	 2.0809832028	 0.063739
H	 2.839102849	-0.3344782454	 1.0501044476	 0.080983
H	 2.4116482832	-1.9344594413	 1.6910776873	 0.103577
H	 2.4965445253	 0.0516124474	-1.2705839983	 0.081955
H	 2.1987374375	-1.3670658979	-2.2950731666	 0.102897
H	-0.1050525752	-1.5417070879	-1.5062486627	 0.10154
H	 0.1389848322	 0.0748438975	-2.1561771025	 0.089501
145.668	168.5348	216.2395	260.4488	292.0115	358.3519	383.9279	397.1307	455.271	507.6186	590.7764	687.3257	695.5889	779.1424	836.4419	864.0557	884.7726	906.2428	938.5553	961.6438	994.7436	1003.1031	1034.1866	1053.1796	1073.9422	1128.9919	1148.8743	1157.5674	1187.6745	1204.697	1233.2561	1257.1579	1259.1079	1276.3248	1280.6572	1315.0747	1342.231	1360.9351	1374.5768	1386.9154	1406.4905	1425.626	1475.7574	1485.8423	1487.184	1493.4011	1495.3058	1501.8189	1507.0502	2943.4391	2953.792	3015.931	3029.1806	3037.3904	3045.4164	3061.3708	3063.705	3071.5289	3078.9955	3081.124	3089.4189	3093.4841	3116.2309
CC12CCC1COCC2	C[C@]12CC[C@H]1COCC2	
InChI=1S/C8H14O/c1-8-3-2-7(8)6-9-5-4-8/h7H,2-6H2,1H3	InChI=1S/C8H14O/c1-8-3-2-7(8)6-9-5-4-8/h7H,2-6H2,1H3/t7-,8+/m0/s1
