17
gdb 102897	3.06743	0.7892	0.64971	4.5066	74.43	-0.3037	-0.0004	0.3033	1641.3799	0.134329	-418.023658	-418.013709	-418.012765	-418.059627	33.73	
C	-0.1964927333	 1.3956722612	-0.0917613923	-0.252687
O	 0.2171573451	 0.0452342035	 0.0550643216	-0.234766
C	 0.7271618564	-0.538671723	-1.1183398974	-0.030852
C	 1.3151182572	-1.9070616571	-0.7514504996	-0.204724
C	 2.4466558126	-1.7589743617	 0.2833676495	-0.350851
C	 3.0284724587	-3.0475799189	 0.6482313857	 0.258186
N	 3.4808369509	-4.0734983196	 0.9267732781	-0.296849
C	-0.3223611946	-0.6872827298	-2.1536943971	 0.276199
N	-1.146779834	-0.7918539173	-2.9562141704	-0.31266
H	 0.6355253445	 2.0328625179	-0.4245756193	 0.117428
H	-1.0238654666	 1.4872419791	-0.8068142984	 0.142415
H	-0.5323615907	 1.7269883125	 0.8919664758	 0.145763
H	 1.5177791663	 0.0987169188	-1.5513324376	 0.116018
H	 0.5178415982	-2.5356340473	-0.3459860245	 0.153156
H	 1.6879840108	-2.3903550958	-1.6584683251	 0.145146
H	 3.2436157836	-1.1173644516	-0.1116314685	 0.152175
H	 2.0600575349	-1.2714869909	 1.1827334497	 0.176903
60.8684	86.3297	100.4512	110.6873	172.3674	200.4756	239.1582	285.4488	316.447	396.6578	459.5698	486.426	592.6974	617.2591	763.919	868.8265	926.8103	985.4036	1038.8083	1049.4848	1089.9412	1150.9329	1184.1108	1188.7302	1242.7636	1270.4601	1317.7242	1342.6487	1367.8122	1394.6496	1469.2737	1480.6012	1484.3015	1489.2002	1507.6056	2356.1665	2366.2954	2958.7153	2997.9799	3044.5427	3062.9718	3073.1502	3099.6519	3125.4274	3139.6728
COC(CCC#N)C#N	CO[C@@H](CCC#N)C#N	
InChI=1S/C6H8N2O/c1-9-6(5-8)3-2-4-7/h6H,2-3H2,1H3	InChI=1S/C6H8N2O/c1-9-6(5-8)3-2-4-7/h6H,2-3H2,1H3/t6-/m0/s1
