19
gdb 41246	2.90335	2.07421	1.68822	1.8122	77.8	-0.2378	0.0763	0.3141	875.3478	0.162716	-385.809115	-385.803052	-385.802108	-385.839085	26.82	
C	 0.0334834229	 1.4798896933	-0.2428364673	-0.154463
O	 1.4368811319	 1.5696777131	 0.1752848627	-0.358017
C	 1.2840425161	 0.3322988178	 0.8696265883	 0.448965
C	 2.0228294508	-1.0037985116	 1.0153940094	-0.322393
C	 0.7967956627	-1.2727191792	 1.9538861883	-0.043413
C	-0.6252935461	-0.804017314	 1.3006684348	-0.081801
C	-0.7271852853	 0.2393938838	 2.4392270647	-0.252128
C	 0.8048553703	 0.2266850349	 2.3740775103	-0.084957
C	 0.002969043	-0.0292344311	 0.138015548	-0.054196
H	-0.5971248657	 2.1541615869	 0.3455049782	 0.108559
H	-0.0773248582	 1.7058900584	-1.3069388411	 0.10852
H	 2.1876153538	-1.5970056522	 0.112126485	 0.097706
H	 2.9296277062	-0.9766382241	 1.627624515	 0.104317
H	 0.7855294721	-2.084328838	 2.6781017434	 0.078702
H	-1.4279571268	-1.5139872241	 1.1035952495	 0.062281
H	-1.283250308	 1.1614063899	 2.2486049881	 0.094325
H	-1.0799031981	-0.2064366433	 3.3741870218	 0.098204
H	 1.4689616049	 0.6211398452	 3.142174278	 0.06979
H	 0.1744904337	-0.6499730658	-0.743997857	 0.079998
231.8046	304.4652	406.5138	447.0103	463.4718	552.2726	627.0316	694.2406	733.4736	777.6619	820.5804	847.7623	877.6258	904.2909	923.1928	942.3403	966.0152	981.9046	1006.1073	1011.8648	1022.9342	1036.5412	1065.631	1079.5106	1125.1293	1148.165	1157.7408	1164.7415	1179.5158	1208.9721	1214.0281	1239.2639	1252.6082	1262.4486	1290.9877	1313.8081	1339.6398	1371.4513	1496.7863	1500.3697	1518.4266	3039.6225	3049.6807	3051.7687	3077.5048	3096.6001	3103.0964	3110.386	3116.9306	3124.3888	3145.6399
C1OC23CC4C(CC24)C13	C1O[C@@]23C[C@@H]4[C@@H](C[C@H]24)[C@@H]13	
InChI=1S/C8H10O/c1-4-5-2-8(6(1)5)7(4)3-9-8/h4-7H,1-3H2	InChI=1S/C8H10O/c1-4-5-2-8(6(1)5)7(4)3-9-8/h4-7H,1-3H2/t4-,5-,6+,7-,8+/m1/s1
