15
gdb 124402	3.21466	1.22852	0.99249	0.8261	71.32	-0.2708	-0.0283	0.2425	1173.2615	0.111824	-416.774104	-416.765845	-416.764901	-416.807839	29.761	
C	 0.0046289976	 1.6309727243	 0.1508171766	-0.38935
C	-0.0543727246	 0.0980422662	 0.0053270121	-0.254057
C	 0.6972755126	-0.5750345858	 1.0674044706	 0.340497
C	 1.3200127382	-1.1001014949	 1.9499579442	-0.474629
C	-1.4685837289	-0.4268641142	-0.0370619426	 0.37964
N	-2.5096992666	 0.3082656066	 0.2475097019	-0.170421
O	-3.5882424629	-0.5699172095	 0.076385295	-0.155578
C	-3.0563219932	-1.7343609188	-0.2971602351	 0.106019
N	-1.7671153184	-1.7286633188	-0.3919779517	-0.29743
H	 1.0460581806	 1.9591094068	 0.1417164665	 0.127573
H	-0.5297114349	 2.1120140624	-0.6717811507	 0.130884
H	-0.4535038761	 1.9475606265	 1.089716923	 0.148432
H	 0.3993886793	-0.1846101687	-0.9545103981	 0.13658
H	 1.8694436389	-1.57572947	 2.7243293959	 0.202564
H	-3.7393295615	-2.5503876321	-0.4829454979	 0.169275
37.9555	107.782	185.1185	216.5431	229.2721	303.0024	403.867	454.9588	546.0436	628.764	632.6722	648.0818	671.4917	799.1308	870.52	907.0187	916.9819	983.5657	991.4052	1036.816	1089.5097	1126.0815	1145.4716	1260.407	1310.1363	1316.5093	1377.489	1412.9602	1488.1423	1494.8754	1519.916	1599.4288	2241.6218	3018.7217	3059.118	3137.3962	3144.1087	3267.3448	3504.7381
CC(C#C)C1=NOC=N1	C[C@@H](C#C)c1nocn1	
InChI=1S/C6H6N2O/c1-3-5(2)6-7-4-9-8-6/h1,4-5H,2H3	InChI=1S/C6H6N2O/c1-3-5(2)6-7-4-9-8-6/h1,4-5H,2H3/t5-/m0/s1
