21
gdb 61604	3.38311	0.80213	0.71546	4.827	83.95	-0.2579	0.0406	0.2985	1624.0099	0.181866	-383.269841	-383.259648	-383.258704	-383.306067	36.591	
C	 0.3631384756	 1.6482916204	-0.1085238512	-0.380576
C	 0.0360643695	 0.1471207885	 0.0175116039	-0.143138
C	 0.5874038394	-0.7001151412	-1.1594633045	-0.195103
C	-0.1602193024	-0.461238381	-2.4527185289	-0.025881
N	 0.2422624085	 0.6843828728	-3.2915921335	-0.331166
C	 0.4204227525	-0.6837788381	-3.8072102564	-0.008972
C	 1.8318184684	-1.1501819321	-4.0731965821	-0.395249
C	 0.541277377	-0.3774792562	 1.2914344738	 0.263359
N	 0.950198933	-0.7934111555	 2.2895283854	-0.32634
H	 1.4446181285	 1.8071134676	-0.07937741	 0.136766
H	-0.0065921294	 2.031849878	-1.0602245073	 0.141911
H	-0.0888607597	 2.2144996932	 0.7096855422	 0.129238
H	-1.0555705015	 0.0252042938	 0.0425135558	 0.12067
H	 1.6505793977	-0.4792476776	-1.2850657438	 0.121556
H	 0.506420363	-1.7615571081	-0.8984802594	 0.120035
H	-1.2311567871	-0.6540684922	-2.372174448	 0.082153
H	-0.571102069	 1.125096914	-3.7120603383	 0.231245
H	-0.2983124212	-1.0129125054	-4.5574532039	 0.085458
H	 2.5315570023	-0.7587495146	-3.3321053889	 0.129975
H	 1.8897864104	-2.2439560781	-4.0643046671	 0.120202
H	 2.1654901745	-0.8043462081	-5.057234428	 0.123859
27.1431	85.8034	108.3905	171.2299	197.0292	208.8437	230.8963	283.437	324.4404	385.7024	446.74	487.9	562.1163	582.6861	766.7682	805.9662	847.6601	875.0008	912.0442	932.1154	980.3933	1002.1731	1038.7307	1057.2123	1087.343	1108.7511	1135.0078	1161.5232	1207.4375	1249.7847	1274.9175	1278.856	1301.5479	1336.8422	1365.905	1404.4664	1414.8522	1428.4062	1469.0531	1473.2432	1489.515	1491.6259	1499.3764	1505.0001	2354.6466	3017.2584	3038.3264	3046.3116	3055.6269	3085.4023	3098.3934	3104.3676	3107.748	3126.1711	3134.3783	3151.5579	3505.9301
CC(CC1NC1C)C#N	C[C@@H](C[C@H]1N[C@H]1C)C#N	
InChI=1S/C7H12N2/c1-5(4-8)3-7-6(2)9-7/h5-7,9H,3H2,1-2H3	InChI=1S/C7H12N2/c1-5(4-8)3-7-6(2)9-7/h5-7,9H,3H2,1-2H3/t5-,6-,7+/m0/s1
