12
gdb 132473	3.2348	1.44147	0.99713	4.2596	64.06	-0.2229	-0.061	0.1619	1049.0233	0.07676	-513.929353	-513.922102	-513.921157	-513.961243	27.131	
O	 0.0285255339	 1.3431310835	-0.0602962757	-0.397228
C	-0.0711424127	 0.0154898266	 0.0509411656	 0.44165
C	-1.1922958543	-0.7006567459	-0.1608570821	-0.196775
N	-1.1739411373	-2.075747734	-0.0145543914	-0.279397
C	-0.0876573167	-2.6397912375	 0.3202575695	 0.283227
F	-0.0439911523	-3.9522604259	 0.4657662093	-0.041771
C	 1.1852469355	-1.9581000374	 0.5740947547	 0.271656
N	 2.2603927741	-2.5285839507	 0.9063085203	-0.504056
O	 1.0955480386	-0.5725962692	 0.4085900565	-0.26372
H	 0.9359392034	 1.6026307299	 0.1441213129	 0.315999
H	-2.1189710477	-0.22540932	-0.4457764112	 0.136283
H	 3.0196198255	-1.8587775592	 1.0305788916	 0.234132
100.8822	165.3863	289.7905	320.514	350.3437	410.7104	429.7063	491.295	510.8121	601.0609	668.1412	726.2104	758.8336	787.0137	815.4708	854.8394	977.9669	1040.5277	1182.665	1196.986	1252.2643	1302.5609	1372.7473	1421.4221	1655.4053	1710.0279	1758.9586	3241.6339	3497.6876	3801.8563
OC1=CN=C(F)C(=N)O1	OC1=C[N]C(=C([NH])O1)F	
InChI=1S/C4H3FN2O2/c5-3-4(6)9-2(8)1-7-3/h1,6,8H	InChI=1S/C4H3FN2O2/c5-3-4(6)9-2(8)1-7-3/h1,6,8H
