14
gdb 132169	3.22436	1.39372	0.97402	3.4529	70.88	-0.2048	-0.0233	0.1815	1102.2651	0.103214	-474.19946	-474.192001	-474.191056	-474.231256	28.876	
N	-0.0225647431	 1.3623250776	 0.1388110871	-0.572299
C	 0.0605481524	-0.0085328511	 0.0419795099	 0.485324
N	-1.1201111361	-0.6914992854	 0.0395366763	-0.376648
H	-2.004788246	-0.2091229803	 0.1241995481	 0.26362
C	-1.2199363632	-2.0913373634	-0.0041852876	 0.282799
N	-2.381634519	-2.6260837119	-0.0064734975	-0.575144
C	 0.0919255737	-2.7022726173	-0.0295246389	 0.165358
F	 0.1159223533	-4.0404820404	-0.0614738208	-0.081257
C	 1.2203914242	-1.9609518535	-0.0124495062	-0.121001
N	 1.2274304565	-0.5858500148	 0.0081557907	-0.352987
H	 0.865186693	 1.810439215	-0.0353245301	 0.272751
H	-0.8016218199	 1.8114253966	-0.3193869115	 0.259157
H	-2.2895513979	-3.6395150746	-0.0348446281	 0.226563
H	 2.1903494021	-2.4485623265	-0.0252781413	 0.123762
136.0119	160.1402	299.4788	333.5318	343.0222	387.8436	413.0743	463.8818	549.6849	582.8885	596.9707	630.0824	736.4315	755.6548	764.3791	794.9801	824.1273	952.6093	1010.4681	1066.6616	1138.82	1269.4303	1292.2799	1313.9813	1333.6771	1423.4792	1533.3417	1612.9256	1652.8527	1666.3124	1718.6674	3180.4836	3517.6747	3572.8789	3594.7004	3682.4869
NC1=[NH+]C(=N)C(F)=C[N-]1	NC1=NCC(=C(N1)[NH])F	
InChI=1S/C4H4FN4/c5-2-1-8-4(7)9-3(2)6/h1H,(H3-,6,7,8,9)/q-1/p+1	InChI=1S/C4H6FN4/c5-2-1-8-4(7)9-3(2)6/h6H,1H2,(H3,7,8,9)
