18
gdb 7850	3.84442	1.33674	1.19533	3.3467	68.6	-0.2401	0.0551	0.2952	1070.0176	0.154078	-381.150973	-381.142214	-381.14127	-381.184553	32.271	
C	-0.2066207224	 1.3926926728	 0.3662139523	-0.405742
C	 0.0797992613	-0.0717399996	 0.1307003804	 0.036296
C	 1.4170420976	-0.5300062832	-0.401909149	-0.336545
C	 1.022408637	-0.8446747825	 1.0196583811	 0.047835
N	 1.7240729019	-0.1657565686	 2.0706891019	-0.345376
C	 1.0982208002	 0.0283179116	 3.2898993563	 0.443957
N	 1.9601343178	 0.4579889351	 4.2957225497	-0.565621
O	-0.0850589196	-0.1744547869	 3.4764707087	-0.383281
H	 0.6953571107	 1.9256143066	 0.6789235939	 0.110902
H	-0.5798231682	 1.8691758668	-0.5466111989	 0.109178
H	-0.9568788041	 1.5155046765	 1.1530799669	 0.137956
H	-0.7793299273	-0.648557144	-0.2001895411	 0.08879
H	 1.4612533673	-1.3455474736	-1.1149734304	 0.112955
H	 2.1772224994	 0.2321984242	-0.5428650968	 0.108375
H	 0.737262246	-1.8705933686	 1.2433821978	 0.096936
H	 2.7236904475	-0.3040942934	 2.0957978103	 0.238543
H	 2.7411249258	 1.0358006604	 4.0215168483	 0.245505
H	 1.460594879	 0.8078670765	 5.0995635285	 0.259338
53.3734	92.2658	150.5721	199.1822	254.3215	314.6609	393.2404	394.6789	433.2853	503.8631	546.3455	587.279	683.6591	784.0141	791.0458	818.5709	847.3111	918.5035	992.0182	1017.8502	1058.5335	1083.3998	1101.6203	1119.7208	1147.8247	1189.5723	1195.248	1270.0449	1319.4107	1385.3575	1414.3322	1420.3333	1481.5719	1495.0233	1503.8535	1517.2027	1626.1015	1809.4257	3037.7206	3102.1516	3114.6787	3117.5687	3129.4903	3149.7819	3216.1584	3569.7518	3596.6897	3683.6047
CC1CC1NC(N)=O	C[C@H]1C[C@H]1NC(=O)N	
InChI=1S/C5H10N2O/c1-3-2-4(3)7-5(6)8/h3-4H,2H2,1H3,(H3,6,7,8)	InChI=1S/C5H10N2O/c1-3-2-4(3)7-5(6)8/h3-4H,2H2,1H3,(H3,6,7,8)/t3-,4+/m0/s1
