21
gdb 101123	3.41142	1.01591	0.88787	2.1855	78.33	-0.2317	0.0676	0.2993	1379.9263	0.181072	-424.178721	-424.169289	-424.168345	-424.213297	35.337	
C	 0.0329129257	 1.5745675993	 0.1014775433	-0.385263
C	 0.0589608936	 0.0462643024	 0.0261279959	-0.192687
C	 0.6908592236	-0.4863448873	-1.2685353703	-0.012833
O	 2.0278183605	-0.023090232	-1.4358148525	-0.426695
C	 0.610803371	-1.9924075054	-1.3555642706	 0.298527
C	 1.7057009893	-2.950426807	-0.9171827911	-0.36062
C	 1.2014205714	-2.9824370395	-2.3286859131	 0.048215
O	-0.0050666784	-3.7459061381	-2.4208660578	-0.287845
C	-0.6757790153	-2.7970507744	-1.5496747477	-0.138315
H	 1.0398640675	 1.9861089833	-0.0073966735	 0.125791
H	-0.5833310807	 1.9963452228	-0.7000673176	 0.117427
H	-0.378461466	 1.9170379358	 1.0554849061	 0.111495
H	 0.6150212912	-0.3693766787	 0.8791735688	 0.091302
H	-0.9602390496	-0.3525452481	 0.1089542558	 0.102465
H	 0.14663735	-0.060842145	-2.1232767037	 0.088598
H	 2.5061543817	-0.2217790921	-0.6229589515	 0.280329
H	 2.6844639362	-2.4955507025	-0.8012672086	 0.107689
H	 1.4943409975	-3.7823392284	-0.2503522929	 0.111974
H	 1.8077554692	-2.8681828012	-3.2195114209	 0.111409
H	-1.1214650675	-3.2773547806	-0.6702424565	 0.103447
H	-1.4494250907	-2.2493712432	-2.1023518115	 0.105593
52.0288	98.2951	127.8763	202.963	240.814	262.9753	327.059	329.4926	341.3982	440.8046	475.8114	501.2139	733.0581	759.4924	785.044	844.9032	888.3162	926.9756	930.6176	985.3905	988.6866	1001.1291	1025.1367	1050.4973	1069.2026	1079.2176	1095.5334	1111.367	1130.2614	1159.6849	1213.762	1256.0121	1271.8654	1311.909	1319.9115	1338.8572	1382.6094	1404.6423	1406.8159	1420.4598	1477.453	1482.782	1495.3122	1507.9501	1516.3129	3002.0842	3012.8677	3016.5162	3038.3883	3049.4394	3062.0574	3103.9944	3111.6124	3120.8807	3185.9346	3206.8652	3798.8641
CCC(O)C12CC1OC2	CC[C@@H](O)[C@]12C[C@H]1OC2	
InChI=1S/C7H12O2/c1-2-5(8)7-3-6(7)9-4-7/h5-6,8H,2-4H2,1H3	InChI=1S/C7H12O2/c1-2-5(8)7-3-6(7)9-4-7/h5-6,8H,2-4H2,1H3/t5-,6-,7-/m1/s1
