21
gdb 117943	2.8555	0.82132	0.68273	2.6226	76.7	-0.2655	0.004	0.2695	1715.2681	0.179827	-461.403269	-461.3923	-461.391355	-461.44042	37.944	
C	-0.0371899975	 1.5939740947	-0.0065424987	-0.385127
C	 0.0048264963	 0.0639762881	-0.0156683383	-0.166999
C	 0.7317471714	-0.5015604646	-1.2390822338	-0.177792
C	 0.7144511941	-2.0417537454	-1.2666103765	 0.0111
O	-0.5999097294	-2.5446215724	-1.2808255882	-0.436524
C	 1.4590710772	-2.5713419178	-2.4855298794	 0.424218
O	 0.9088035944	-3.1752051384	-3.3780911846	-0.381089
O	 2.7646234646	-2.2860722296	-2.4594784884	-0.225593
C	 3.522873987	-2.7385410286	-3.5926318107	-0.243752
H	 0.9718786947	 2.0216638884	-0.0046137012	 0.111069
H	-0.5574746816	 1.981017852	-0.8898013918	 0.1149
H	-0.5598904916	 1.9708966824	 0.8780342012	 0.113331
H	 0.5003283832	-0.2968581486	 0.8957290348	 0.092373
H	-1.012024981	-0.3410549463	 0.0048059183	 0.122016
H	 0.2526588358	-0.1358716831	-2.1570670852	 0.098474
H	 1.7731192488	-0.1594908923	-1.2575623657	 0.104461
H	 1.2355308286	-2.4134533385	-0.3710051142	 0.098364
H	-0.7085882242	-2.9701036239	-2.1446023283	 0.294032
H	 3.1462172309	-2.2833723653	-4.5116835976	 0.145942
H	 4.5498524205	-2.4275982519	-3.4036636397	 0.139634
H	 3.4605524678	-3.8254266287	-3.6839803819	 0.14696
49.1487	84.6334	92.7988	107.455	115.0546	180.3938	219.7407	251.2041	299.0049	327.4935	366.3375	398.6999	424.3036	522.0921	688.01	748.8696	770.1395	857.6553	900.711	927.683	977.0966	1022.7883	1049.7466	1104.4175	1128.0089	1165.3698	1177.8602	1210.2376	1240.2785	1259.8477	1293.0306	1303.2746	1330.2193	1368.0657	1390.0087	1412.6606	1448.5999	1476.4236	1479.2792	1482.5465	1494.9544	1495.823	1500.2561	1511.0988	1800.6241	2993.3025	3016.2857	3025.3496	3029.5153	3056.0223	3064.4713	3079.5438	3100.1387	3102.4352	3133.1655	3165.6312	3715.1172
CCCC(O)C(=O)OC	CCC[C@@H](O)C(=O)OC	
InChI=1S/C6H12O3/c1-3-4-5(7)6(8)9-2/h5,7H,3-4H2,1-2H3	InChI=1S/C6H12O3/c1-3-4-5(7)6(8)9-2/h5,7H,3-4H2,1-2H3/t5-/m1/s1
