20
gdb 96200	2.18091	1.66544	0.99995	1.2172	77.9	-0.2373	0.0172	0.2545	1218.2807	0.170514	-440.306703	-440.297663	-440.296718	-440.340402	33.813	
C	-0.0446282727	 1.5159293571	-0.0323600153	-0.405251
C	 0.00435208	 0.0020981591	-0.0804237195	 0.213267
O	 0.8914457958	-0.3768229021	-1.0831329216	-0.229716
C	 0.8116523089	-1.7493605518	-1.4336685518	-0.096313
C	 1.4067182601	-2.6653825332	-0.3689676378	-0.156559
N	 0.7044328131	-2.767793815	 0.8990022854	-0.284623
C	 0.3230897701	-1.764452614	 1.566587641	 0.374416
C	-0.2322233053	-1.9167313176	 2.9551481448	-0.443421
O	 0.391759058	-0.4322361928	 1.2272910173	-0.273045
H	 0.9552356884	 1.9053531006	 0.1744828659	 0.139132
H	-0.3846556453	 1.9050211052	-0.9944667617	 0.12752
H	-0.7253000735	 1.8473417571	 0.7542343234	 0.126336
H	-0.9882475704	-0.4345044066	-0.2860336878	 0.067019
H	-0.2358816238	-2.0277134361	-1.6305706507	 0.095982
H	 1.3765792772	-1.8570569248	-2.3647593786	 0.110442
H	 1.4745544311	-3.6741446047	-0.7936276474	 0.104416
H	 2.4364657867	-2.3324250423	-0.1747707709	 0.120269
H	-0.1987444932	-2.9615616278	 3.2606124864	 0.140494
H	 0.3516199918	-1.307826518	 3.6534931783	 0.139597
H	-1.2629242471	-1.5486866423	 2.9981567006	 0.13004
85.526	118.1172	169.801	205.8251	221.4019	264.4883	347.7896	366.9782	376.2027	404.7532	545.9004	586.8683	621.2839	676.067	794.9902	849.9202	873.9903	923.1571	964.5013	1015.3639	1054.5545	1065.6859	1098.4596	1120.7214	1139.1154	1150.4536	1176.3284	1234.332	1270.0261	1319.3885	1379.2592	1382.2887	1393.4633	1405.9947	1416.8262	1429.8014	1471.8048	1477.5016	1478.3673	1482.1443	1486.4889	1495.2006	1764.5008	2954.6515	2984.7167	3010.0356	3043.1127	3055.1487	3059.9929	3084.2096	3098.5386	3140.8487	3144.7221	3165.3404
CC1OCCN=C(C)O1	C[C@H]1OCCN=C(C)O1	
InChI=1S/C6H11NO2/c1-5-7-3-4-8-6(2)9-5/h6H,3-4H2,1-2H3	InChI=1S/C6H11NO2/c1-5-7-3-4-8-6(2)9-5/h6H,3-4H2,1-2H3/t6-/m0/s1
