18
gdb 33026	4.59843	0.85588	0.76873	2.3797	81.18	-0.2498	-0.0218	0.2281	1465.8866	0.149719	-402.003166	-401.99482	-401.993876	-402.037142	30.518	
O	-0.0653942785	 1.4572535074	 0.0145378852	-0.415921
C	 0.0305285973	 0.043497474	 0.0186271298	-0.060335
C	-1.3943168692	-0.5170062823	-0.0039706538	-0.300936
C	-1.4141268742	-2.0244343456	 0.0108767125	 0.248405
C	-1.4378208701	-2.7603318223	-1.1784348114	-0.056402
N	-1.4253666296	-4.0924689762	-1.2483557356	-0.262395
C	-1.3893654837	-4.7641947302	-0.094655081	 0.001502
C	-1.3685455401	-4.1434277901	 1.151008561	-0.112285
C	-1.3807648235	-2.7544072651	 1.2001887363	-0.156481
H	 0.8248333641	 1.8206993663	 0.0076213958	 0.288177
H	 0.5836740159	-0.3290804447	-0.8580548408	 0.093794
H	 0.555726802	-0.3244073812	 0.9149216584	 0.089176
H	-1.9331701171	-0.1166351499	 0.8614840442	 0.114288
H	-1.8973393141	-0.1364108058	-0.899156541	 0.117363
H	-1.4754826377	-2.2340285057	-2.1313990703	 0.102279
H	-1.3808438184	-5.8490121339	-0.1702523634	 0.107286
H	-1.3478902603	-4.736440493	 2.0588502199	 0.100687
H	-1.3714361427	-2.2364863916	 2.1552862742	 0.101798
47.6744	97.5776	105.6227	252.2016	278.8563	335.0306	341.5737	415.3039	513.658	615.9705	651.2583	742.7874	799.9153	821.3004	853.1494	959.4053	973.9105	1000.92	1013.6363	1037.3149	1053.6519	1067.2842	1082.3331	1144.8503	1211.9524	1223.8657	1240.277	1248.9959	1296.2441	1312.9039	1337.9429	1369.7547	1456.2357	1457.8561	1492.7545	1511.5383	1526.2309	1612.0216	1634.319	2966.7176	2996.5415	3045.0234	3090.6559	3135.0375	3154.3195	3166.4541	3195.7434	3830.3682
OCCC1=CN=CC=C1	OCCc1cnccc1	
InChI=1S/C7H9NO/c9-5-3-7-2-1-4-8-6-7/h1-2,4,6,9H,3,5H2	InChI=1S/C7H9NO/c9-5-3-7-2-1-4-8-6-7/h1-2,4,6,9H,3,5H2
