17
gdb 15897	2.61918	2.07603	1.29041	1.8103	66.34	-0.2534	0.0171	0.2705	967.419	0.141031	-400.989054	-400.980619	-400.979675	-401.022167	29.973	
C	-0.1115179565	 1.4314110199	 0.2898148701	-0.249175
O	-0.1353323263	 0.1612142578	-0.3454016535	-0.240526
C	-1.3382839468	-0.5204195677	-0.1636473004	-0.013588
C	-1.3421263605	-1.9658783207	-0.7215011944	 0.095166
C	-0.044974478	-2.5136691203	-1.2686417536	-0.393507
O	-1.6360767984	-2.472027571	 0.6329444531	-0.266716
C	-1.5676206845	-1.2109600507	 1.178466659	 0.416008
N	-1.6517137459	-0.8216524773	 2.3683132211	-0.550597
H	 0.8653513471	 1.8703268209	 0.0770741911	 0.128919
H	-0.8969118396	 2.0888988058	-0.1131299622	 0.10741
H	-0.2488522551	 1.3392322045	 1.3731144186	 0.151301
H	-2.1982169466	 0.0876736881	-0.4823122569	 0.092415
H	-2.1893606268	-2.190252285	-1.3756265262	 0.095475
H	 0.7909269592	-2.2615949303	-0.6135804433	 0.140594
H	-0.1100167467	-3.6008341769	-1.3687309108	 0.127885
H	 0.1526584795	-2.0850048012	-2.2558494284	 0.130808
H	-1.7809968641	-1.6065509556	 3.0103411267	 0.228129
82.6243	108.462	165.0927	190.9671	212.2191	253.9895	338.8915	390.0869	450.0104	526.8829	670.2701	742.2274	841.4786	870.1914	890.753	918.6341	1012.5901	1026.377	1066.9434	1076.4695	1145.3906	1183.0059	1185.3066	1229.604	1246.6109	1258.6812	1335.5292	1379.1092	1385.0088	1413.1876	1480.133	1484.6397	1485.9199	1490.1639	1514.102	1817.6728	2989.3025	2994.7643	3049.8851	3071.3867	3072.8123	3119.6114	3130.2987	3144.1104	3464.1109
COC1C(C)OC1=N	CO[C@H]1[C@@H](C)O[C]1[NH]	
InChI=1S/C5H9NO2/c1-3-4(7-2)5(6)8-3/h3-4,6H,1-2H3	InChI=1S/C5H9NO2/c1-3-4(7-2)5(6)8-3/h3-4,6H,1-2H3/t3-,4+/m1/s1
