21
gdb 114831	3.20242	1.28876	1.23361	2.3121	77.17	-0.245	0.0876	0.3327	1143.0894	0.184926	-424.241532	-424.233664	-424.23272	-424.274026	31.191	
C	-0.0867875987	 1.6185056611	 0.2112557716	-0.383094
C	 0.0296647712	 0.096156001	 0.0823389956	-0.203973
C	-1.335303492	-0.5787091756	 0.0169068587	 0.167495
O	-2.0432327255	-0.1607096439	-1.1835872795	-0.288852
C	-2.4661486102	-1.3586933601	-1.81148057	 0.216713
C	-2.8287280179	-2.2727598108	-0.6389464696	-0.261375
C	-1.3952402657	-2.1222647767	-0.0817843456	-0.115296
C	-0.6084376953	-2.5782418236	-1.3224997191	-0.077049
O	-1.359705766	-2.0104509229	-2.4180064012	-0.270922
H	 0.9004602151	 2.0889866277	 0.2385878611	 0.109743
H	-0.6402692831	 2.0305975118	-0.6366490238	 0.139645
H	-0.6171825749	 1.8996948219	 1.1280526819	 0.110294
H	 0.6011069378	-0.1485997461	-0.8185729045	 0.112583
H	 0.5808586399	-0.3133250245	 0.9393782691	 0.089866
H	-1.9252752525	-0.2544912924	 0.8888953989	 0.069029
H	-3.1999831969	-1.1215380333	-2.5796947544	 0.089838
H	-3.6037181824	-1.8574709407	 0.0078302959	 0.107756
H	-3.0849898538	-3.2891337661	-0.9447326822	 0.1066
H	-1.1502164342	-2.6471184251	 0.8415282781	 0.076232
H	 0.4222758623	-2.2140980382	-1.3568224806	 0.107452
H	-0.591142567	-3.6723962035	-1.4128858706	 0.097314
93.5627	115.7729	190.3446	242.8056	332.501	390.9978	478.0712	495.97	524.83	584.005	761.042	801.3298	825.4958	849.4383	883.2391	905.7597	928.1041	938.7693	954.2201	971.389	989.595	1023.7214	1051.4099	1079.7508	1098.4423	1107.897	1145.4603	1155.5805	1186.918	1223.7954	1269.5974	1293.8234	1297.2005	1310.0497	1328.2135	1336.5512	1374.0753	1386.7918	1407.7601	1417.6501	1473.9733	1491.8347	1497.9789	1509.7238	1533.3691	2971.5608	3015.9563	3022.5836	3035.772	3074.7963	3075.8055	3083.6509	3104.1094	3121.3805	3123.4038	3136.2219	3149.283
CCC1OC2CC1CO2	CC[C@H]1O[C@@H]2C[C@H]1CO2	
InChI=1S/C7H12O2/c1-2-6-5-3-7(9-6)8-4-5/h5-7H,2-4H2,1H3	InChI=1S/C7H12O2/c1-2-6-5-3-7(9-6)8-4-5/h5-7H,2-4H2,1H3/t5-,6+,7+/m0/s1
