16
gdb 87027	2.20926	1.54941	1.07341	5.617	71.64	-0.2591	-0.0111	0.248	1139.5006	0.122968	-434.066637	-434.057493	-434.056548	-434.100465	33.539	
C	 0.263137647	 1.3113145042	-0.3152320819	-0.432785
C	 0.4217225269	-0.1333173371	 0.0664534713	 0.046788
O	 1.6944323323	-0.5497248913	 0.5748476579	-0.288562
C	 0.5752635715	-0.5999355345	 1.4731417122	 0.210943
C	 0.592513818	 0.3852463139	 2.5380952991	 0.293453
N	 0.6353637957	 1.2071168323	 3.3481722014	-0.344872
C	 0.0992053664	-1.9793336172	 1.8680217437	 0.271725
N	 0.5725034105	-2.9646186697	 1.0318291487	-0.553145
N	-0.7083315327	-2.064781835	 2.8488698667	-0.503674
H	 0.6950562885	 1.9721444384	 0.4384553009	 0.160031
H	 0.7577928401	 1.497516037	-1.2736722317	 0.139303
H	-0.7984774703	 1.5516367783	-0.4292329909	 0.142556
H	-0.0299770471	-0.8620646936	-0.6064401489	 0.117494
H	 1.4425675627	-2.7611197092	 0.5606174821	 0.27211
H	 0.4533837517	-3.9179003294	 1.3366373587	 0.256701
H	-0.9948928214	-3.0286447371	 3.0266747606	 0.211935
71.0818	148.0278	161.8134	174.4353	193.805	256.4435	347.1038	406.7507	439.0974	463.7967	498.934	545.2485	589.3356	602.3199	652.0605	691.9262	812.8391	861.5037	914.7265	983.8602	1010.0143	1084.7692	1116.9995	1135.3637	1159.6522	1214.5336	1317.5478	1408.3626	1424.8563	1440.0831	1482.8335	1494.4656	1617.3501	1739.7331	2369.7336	3047.1665	3113.3531	3118.1252	3147.2495	3465.0757	3566.8569	3687.3281
CC1OC1(C#N)C(N)=N	C[C@H]1O[C@]1(C#N)C(=N)N	
InChI=1S/C5H7N3O/c1-3-5(2-6,9-3)4(7)8/h3H,1H3,(H3,7,8)	InChI=1S/C5H7N3O/c1-3-5(2-6,9-3)4(7)8/h3H,1H3,(H3,7,8)/t3-,5+/m1/s1
