23
gdb 88196	3.25676	1.14819	0.99808	1.3168	85.88	-0.2359	0.0861	0.322	1297.5425	0.20733	-388.293799	-388.285054	-388.28411	-388.32681	34.675	
C	-0.1065475338	 1.5324687834	-0.1052982091	-0.412073
C	 0.0222439645	 0.0295105436	 0.0204178206	-0.063284
C	 1.3501677229	-0.6673030385	-0.1844773797	-0.336248
C	 0.6981300644	-0.655749905	 1.1838705415	 0.373383
C	 1.3545973841	 0.1326449068	 2.3080132983	-0.283205
C	 2.3198931742	-0.7719052747	 3.0839697875	-0.070487
O	 1.6770921368	-1.938256491	 3.568906093	-0.24587
C	 1.1471767255	-2.7288109006	 2.5178109438	-0.071187
C	 0.1031348507	-1.9562828446	 1.7047392862	-0.276576
H	 0.7889793251	 2.0528946659	 0.2458337875	 0.114937
H	-0.2595743579	 1.820075306	-1.1514177107	 0.116804
H	-0.9584042358	 1.91210051	 0.4704068826	 0.116394
H	-0.8395809034	-0.509769108	-0.3688891947	 0.077398
H	 1.373558836	-1.5947634315	-0.7480599107	 0.104203
H	 2.2243902503	-0.0399743689	-0.3335383924	 0.103471
H	 1.9007386241	 1.0022569105	 1.9290783238	 0.091053
H	 0.5883424662	 0.5037088776	 3.0015278969	 0.100407
H	 3.1679683129	-1.0508730999	 2.4347324414	 0.084243
H	 2.721300108	-0.2574054401	 3.9621351549	 0.101892
H	 1.960873759	-3.0672292549	 1.8530609913	 0.084106
H	 0.7078938172	-3.6119429209	 2.9912243326	 0.102035
H	-0.7556418324	-1.7377671473	 2.3533809696	 0.099991
H	-0.2609884988	-2.5786533479	 0.8788633758	 0.088615
104.5047	151.1817	192.9345	204.2857	256.5165	310.2676	362.419	404.6365	424.951	479.1712	492.243	603.3663	683.8603	799.3221	828.0032	859.5633	873.2891	905.5346	927.6315	952.2426	990.3982	1016.9193	1028.228	1047.2292	1065.0219	1086.9293	1130.2789	1134.6988	1148.8339	1184.0108	1208.1419	1220.1268	1257.6692	1285.8652	1318.1045	1338.9251	1360.2315	1378.889	1389.369	1409.2663	1419.5524	1433.6442	1466.7074	1476.4403	1490.0389	1492.4757	1494.269	1502.3641	1506.1432	2954.0007	2960.1441	3016.0731	3020.775	3029.5267	3065.2011	3077.6637	3079.765	3082.3362	3085.6965	3102.3961	3116.233	3122.2724	3198.5636
CC1CC11CCOCC1	C[C@H]1CC21CCOCC2	
InChI=1S/C8H14O/c1-7-6-8(7)2-4-9-5-3-8/h7H,2-6H2,1H3	InChI=1S/C8H14O/c1-7-6-8(7)2-4-9-5-3-8/h7H,2-6H2,1H3/t7-/m0/s1
