18
gdb 40408	3.66532	1.28167	1.1361	1.4729	76.05	-0.2404	0.0057	0.246	1113.2893	0.148775	-401.905762	-401.898251	-401.897307	-401.937962	29.557	
C	-0.1007237431	 1.4857125902	-0.0505181823	-0.239743
N	 1.2193430248	 0.8366517909	-0.0447492166	-0.318912
C	 0.007746396	 0.0058654109	 0.046137696	-0.121018
C	-0.2083977639	-0.7374550292	 1.3216886001	 0.467118
C	 0.2374059521	-0.165670017	 2.6673708546	-0.351256
C	 0.4686463408	-1.4023079664	 3.5102444395	-0.079036
C	 0.2708842873	-2.5306330595	 2.8235579036	-0.0758
C	-0.1748753289	-2.2107638046	 1.4359241791	-0.080509
O	-1.4303329505	-1.4862507908	 1.3857064404	-0.311673
H	-0.3210095642	 2.0736603016	 0.8358382006	 0.122162
H	-0.4789177943	 1.9068056619	-0.9781014262	 0.115427
H	 1.6027210606	 0.7976277453	-0.9846151079	 0.236879
H	-0.2951198756	-0.5581795921	-0.8335458656	 0.085022
H	 1.149942334	 0.4297192624	 2.5462224544	 0.139144
H	-0.5289117492	 0.4876487404	 3.1015684696	 0.119624
H	 0.736170904	-1.3437248907	 4.5593641646	 0.101107
H	 0.379661343	-3.5396498788	 3.2009530596	 0.100379
H	-0.0003217628	-2.8776347745	 0.5961453366	 0.091084
71.8007	158.9136	186.9988	306.0418	362.8386	379.7265	487.0535	544.2905	595.3554	719.4099	738.9691	807.6857	858.0444	873.3048	885.5739	914.5104	926.5525	946.0185	953.8307	963.715	985.7255	1017.1091	1059.827	1080.6222	1118.5364	1136.4417	1156.5526	1187.6887	1242.5133	1255.5408	1267.9937	1286.9927	1333.0622	1366.0884	1384.7449	1455.944	1479.8213	1517.2976	1662.2891	3035.9022	3074.362	3111.4919	3130.6889	3153.3169	3191.2077	3196.8458	3220.0471	3515.3393
C1NC1C12CC=CC1O2	C1N[C@H]1[C@]12CC=C[C@H]1O2	
InChI=1S/C7H9NO/c1-2-6-7(3-1,9-6)5-4-8-5/h1-2,5-6,8H,3-4H2	InChI=1S/C7H9NO/c1-2-6-7(3-1,9-6)5-4-8-5/h1-2,5-6,8H,3-4H2/t5-,6-,7-/m1/s1
