20
gdb 57306	2.66813	1.28183	1.10625	2.0266	76.3	-0.2404	-0.0007	0.2396	1205.7822	0.16801	-440.287984	-440.277873	-440.276929	-440.3231	37.049	
C	 0.0961510404	 1.5231337245	 0.1666253464	-0.390949
C	-0.0439535501	 0.0095848584	-0.0130023947	 0.253392
C	 0.6394568841	-0.7529539686	 1.1360185685	-0.410391
O	-1.4392217987	-0.264623602	-0.0385968193	-0.461049
C	 0.6532605124	-0.4069178059	-1.3263917883	 0.336711
O	 1.8214432678	-0.1675066227	-1.5384228133	-0.35144
N	-0.1279393601	-1.1857629068	-2.185264096	-0.106437
C	-1.1733100284	-0.6354355068	-3.0406698406	-0.220319
C	 0.1016901657	-1.1697092784	-3.6147328307	-0.222524
H	 1.1470668121	 1.8109843094	 0.1082866877	 0.140185
H	-0.4599784538	 2.0530919951	-0.6119922909	 0.117714
H	-0.3107469172	 1.8187679882	 1.1373208338	 0.121054
H	 0.192538167	-0.454126661	 2.0881221622	 0.121562
H	 0.5065155481	-1.8340876563	 1.0158619236	 0.112917
H	 1.711407196	-0.5437536982	 1.153013865	 0.140464
H	-1.5461472502	-1.2051440378	-0.2204615448	 0.281808
H	-2.0896337687	-1.2152422728	-3.1025511033	 0.127028
H	-1.3139804139	 0.4412905865	-3.031386297	 0.140043
H	 0.842640853	-0.4623455774	-3.976067724	 0.142594
H	 0.1057149143	-2.1404573476	-4.1009943443	 0.127638
41.9866	89.7301	177.5484	193.5681	208.8795	250.2751	267.3891	288.5734	324.6561	343.4957	379.8809	428.4073	498.1271	587.4794	685.1966	774.4655	815.3395	831.6051	926.9859	938.0586	956.8433	985.1484	1019.774	1047.3146	1114.8915	1126.3251	1132.4829	1133.9189	1174.135	1178.6624	1222.7412	1246.1533	1362.0625	1380.1381	1392.6542	1408.5952	1478.6004	1481.1845	1494.6808	1496.787	1507.2833	1520.9104	1781.037	3035.3951	3049.9367	3106.3063	3117.4277	3119.4931	3121.5325	3136.0971	3148.5426	3201.6399	3215.5529	3801.9813
CC(C)(O)C(=O)N1CC1	CC(C)(O)C(=O)N1CC1	
InChI=1S/C6H11NO2/c1-6(2,9)5(8)7-3-4-7/h9H,3-4H2,1-2H3	InChI=1S/C6H11NO2/c1-6(2,9)5(8)7-3-4-7/h9H,3-4H2,1-2H3
