21
gdb 105904	2.22128	1.77607	1.2244	1.112	82.69	-0.2115	0.0735	0.285	1115.1921	0.182185	-383.155737	-383.147129	-383.146185	-383.188801	33.396	
C	 0.589816786	-0.4600336784	-1.8621801981	-0.377787
C	 0.0760960234	 0.0715897482	-0.518589266	-0.33654
C	-1.3371447331	-0.3424364904	-0.2296733518	 0.413341
N	-2.5163084437	-0.019149759	-1.103637384	-0.153447
C	-2.8933266548	 1.3904382903	-1.1591215502	-0.331242
C	-3.1175989848	-0.7977936226	 0.0164270851	-0.034632
C	-1.9001256789	-1.7672665539	 0.0692530274	-0.08511
N	-1.6405176692	-1.6292019272	 1.5377721767	-0.353586
C	-2.135085459	-0.2738216091	 1.1315380049	-0.113349
H	 1.6051193132	-0.1045706969	-2.0610855727	 0.110551
H	 0.6089705043	-1.5544738812	-1.8691736457	 0.119961
H	-0.0555477265	-0.136361761	-2.6838846749	 0.131398
H	 0.7017837617	-0.2911992646	 0.3053071828	 0.12397
H	 0.1390687959	 1.1675437931	-0.4995148847	 0.100565
H	-2.2089851377	 1.9253399821	-1.825739615	 0.120374
H	-3.899980541	 1.4766635666	-1.5815565226	 0.118659
H	-2.8887847352	 1.9034598686	-0.1818363927	 0.094511
H	-4.1837146009	-1.0271249991	 0.0853135956	 0.075766
H	-1.7415616493	-2.6841938161	-0.4982483735	 0.086278
H	-2.3633663873	-2.1211744688	 2.0697597664	 0.207808
H	-2.2398271928	 0.5447623495	 1.8445306531	 0.082511
79.5881	162.6704	182.4348	216.8834	233.4192	251.0451	299.3817	402.8192	545.5842	554.929	644.3951	736.2753	745.6132	775.2159	807.7525	858.5725	885.4806	906.2082	920.7407	928.7027	988.8569	1022.9727	1068.6286	1091.4724	1104.7097	1121.5547	1131.3536	1158.6727	1160.8722	1177.195	1188.8925	1220.8337	1250.7988	1279.1726	1292.3553	1310.9954	1347.0682	1400.8956	1412.1424	1446.8189	1475.6114	1493.0477	1495.8549	1497.0333	1506.7375	2957.1308	3022.9053	3040.5314	3061.0848	3065.5089	3086.1063	3096.8775	3108.1306	3109.4509	3116.6676	3123.0657	3400.185
CCC12N(C)C3C1NC23	CC[C@@]12N(C)[C@H]3[C@@H]1N[C@@H]23	
InChI=1S/C7H12N2/c1-3-7-5-4(9(7)2)6(7)8-5/h4-6,8H,3H2,1-2H3	InChI=1S/C7H12N2/c1-3-7-5-4(9(7)2)6(7)8-5/h4-6,8H,3H2,1-2H3/t4-,5-,6+,7+
