18
gdb 94024	4.54143	0.99998	0.86928	3.7907	79.	-0.2705	-0.0077	0.2628	1319.4108	0.148405	-401.971959	-401.963577	-401.962633	-402.005097	31.517	
C	 0.0822757735	 1.5529292358	-0.0707351307	-0.398568
C	 0.0093718417	 0.0304062875	 0.0122959449	 0.089325
O	 0.6163778	-0.4769364868	-1.17198515	-0.259522
C	 0.8623926296	-1.8614828644	-1.1301394683	-0.09337
C	 1.9464283794	-2.1707652134	-0.0691738248	-0.200918
C	 1.5699298399	-1.4871215653	 1.2328519204	-0.07495
C	 0.6716533039	-0.5078036846	 1.2544725436	-0.07529
C	 2.1008178414	-3.6161586735	 0.1059573198	 0.258025
N	 2.2112201004	-4.7595199667	 0.233888623	-0.320263
H	 1.1241316162	 1.8847462645	-0.0609739647	 0.129891
H	-0.3856440402	 1.8970925751	-0.9964955156	 0.131709
H	-0.4401545116	 2.0081457274	 0.7755591645	 0.119412
H	-1.0547182417	-0.2710902306	 0.0257009918	 0.086129
H	-0.0504486683	-2.426275907	-0.8878113214	 0.113385
H	 1.1984399066	-2.1571247652	-2.126548141	 0.128344
H	 2.9085268148	-1.7811470574	-0.4298305603	 0.142377
H	 2.0480452558	-1.839862578	 2.1405847241	 0.117682
H	 0.3835259886	-0.0453110474	 2.1947238648	 0.106603
65.9592	138.046	180.0704	231.5262	291.2242	308.7737	366.5101	407.3654	480.7372	523.809	562.0157	617.8209	699.8168	773.2076	811.0069	895.2238	927.8915	993.9273	1007.4985	1036.8905	1061.472	1072.707	1109.1367	1146.9325	1151.2742	1222.3702	1264.6084	1288.4311	1320.8357	1338.946	1359.3699	1391.2201	1407.6541	1422.7314	1485.1156	1495.808	1500.9005	1721.1625	2357.3509	2928.9582	2995.7513	3018.0694	3047.2963	3106.0824	3124.2137	3129.6487	3163.9456	3190.9229
CC1OCC(C=C1)C#N	C[C@H]1OC[C@@H](C=C1)C#N	
InChI=1S/C7H9NO/c1-6-2-3-7(4-8)5-9-6/h2-3,6-7H,5H2,1H3	InChI=1S/C7H9NO/c1-6-2-3-7(4-8)5-9-6/h2-3,6-7H,5H2,1H3/t6-,7+/m1/s1
