15
gdb 8130	4.3236	1.81998	1.50651	4.9735	60.84	-0.2506	0.0481	0.2988	843.8218	0.119473	-399.836647	-399.829702	-399.828758	-399.867529	26.704	
C	-0.0125131917	 1.5645288829	 0.030492574	-0.468208
C	 0.0508868021	 0.0603233493	 0.0141622372	 0.319363
C	-0.8305274446	-0.8161899406	 0.8976212337	-0.364568
C	 0.6676952741	-0.8048902336	 1.0780167574	 0.056024
O	 1.410554452	-1.8249701249	 0.44697226	-0.238511
C	 1.2561152588	-1.7214319065	-0.9188316925	 0.46733
O	 1.6873896837	-2.5230845138	-1.6967949476	-0.384046
N	 0.5403738379	-0.5700972876	-1.1794358534	-0.414131
H	 0.941798971	 1.9969558183	-0.2852234675	 0.135513
H	-0.7959988158	 1.9354616598	-0.640196158	 0.126587
H	-0.2438036597	 1.9273686039	 1.0358434208	 0.127689
H	-1.410407805	-0.3184945481	 1.6675902455	 0.123974
H	-1.2897430016	-1.6990125868	 0.4660860218	 0.130537
H	 1.1401929482	-0.430019096	 1.9771062374	 0.120835
H	 0.0993202605	-0.4773286565	-2.079921579	 0.261611
138.4898	195.698	230.4693	297.768	399.3894	434.2842	481.4529	510.8009	609.8013	699.6378	769.9308	784.4302	833.1486	884.4619	932.3164	964.3787	995.3745	1027.0264	1039.7816	1098.3916	1123.2324	1148.6169	1210.2584	1272.8382	1329.9231	1372.3404	1411.4604	1427.4971	1476.2551	1486.3524	1501.2472	1897.6509	3033.1654	3096.9828	3118.2862	3132.6993	3195.3307	3227.9345	3653.2678
CC12CC1OC(=O)N2	C[C@]12C[C@H]1OC(=O)N2	
InChI=1S/C5H7NO2/c1-5-2-3(5)8-4(7)6-5/h3H,2H2,1H3,(H,6,7)	InChI=1S/C5H7NO2/c1-5-2-3(5)8-4(7)6-5/h3H,2H2,1H3,(H,6,7)/t3-,5+/m1/s1
