19
gdb 71261	2.48411	1.99384	1.40383	2.8736	77.92	-0.2322	-0.0078	0.2244	973.6654	0.16026	-385.898714	-385.891171	-385.890227	-385.930356	30.488	
C	-0.0329281279	 1.5376506642	 0.0700471656	-0.493524
C	-0.0659625928	 0.0274196206	 0.0408863913	 0.203058
C	 0.2740641609	-0.7019027977	-1.3219167727	-0.278227
C	-0.9125820529	-1.6328751275	-1.0873011526	-0.064652
C	-0.920732415	-2.1600456039	 0.3383199173	-0.046679
C	 0.3491790203	-2.1324697437	 1.1682478254	-0.356338
C	 0.7998613878	-0.6622852133	 1.0953144058	 0.387147
O	 1.6809859651	-0.1533596394	 1.7388524698	-0.331554
C	-1.4097937469	-0.7610634256	 0.0521875095	-0.128046
H	 0.9991922213	 1.89537166	 0.0066994908	 0.135493
H	-0.6036564617	 1.9653133628	-0.7599828783	 0.111397
H	-0.4530253646	 1.9202568006	 1.0061255552	 0.123775
H	 0.0918756752	-0.017639898	-2.1543731422	 0.112332
H	 1.2727579405	-1.1393523448	-1.4359906844	 0.100888
H	-1.4876850822	-2.1291339558	-1.8601880011	 0.086581
H	-1.6647389652	-2.9219979663	 0.5399449644	 0.09117
H	 0.1585566779	-2.3963888323	 2.2139747405	 0.129965
H	 1.1502188261	-2.7901034601	 0.8129205317	 0.128057
H	-2.3933446756	-0.3698576098	 0.2767838741	 0.089155
110.6284	186.42	239.1503	298.085	305.9399	382.2839	477.7655	518.5792	613.7635	631.7686	698.8263	728.0363	771.2664	803.7946	848.7921	854.0991	944.9221	958.8742	977.576	985.7863	1012.5679	1023.7874	1061.7785	1064.8714	1101.8286	1126.2719	1152.6234	1184.8259	1203.9906	1222.1803	1254.3715	1277.3173	1319.1251	1347.1414	1401.1696	1413.1768	1455.6615	1485.4028	1490.8339	1497.2766	1840.8153	3032.347	3036.1307	3047.0215	3085.2328	3098.3664	3103.3696	3112.3792	3173.9941	3182.3748	3201.297
CC12CC3C(CC1=O)C23	C[C@@]12C[C@H]3[C@@H](CC1=O)[C@@H]23	
InChI=1S/C8H10O/c1-8-3-5-4(7(5)8)2-6(8)9/h4-5,7H,2-3H2,1H3	InChI=1S/C8H10O/c1-8-3-5-4(7(5)8)2-6(8)9/h4-5,7H,2-3H2,1H3/t4-,5+,7-,8-/m1/s1
