15
gdb 133148	2.34454	1.81574	1.03071	4.0529	71.79	-0.2291	-0.0354	0.1936	1070.4717	0.11285	-458.123321	-458.115441	-458.114497	-458.155515	29.924	
C	 0.1640000036	 1.548385226	-0.0328368981	-0.528567
C	 0.0377976481	 0.0528173223	-0.0199800516	 0.079401
C	 0.0469339123	-0.7189709677	-1.1574550688	 0.23878
F	 0.1909442112	-0.1489920413	-2.3549441081	-0.068468
C	-0.1023164464	-2.1044462599	-1.0780973979	-0.109634
N	-0.2518380862	-2.7233567696	 0.0846501136	-0.198673
N	-0.254018884	-2.0238035908	 1.2121110854	-0.281681
C	-0.1227363731	-0.6909964447	 1.1734326639	 0.344807
N	-0.2074846587	-0.0517373533	 2.3921561404	-0.556455
H	 1.0901450237	 1.8770487796	 0.4563425228	 0.136133
H	 0.1755106388	 1.929393496	-1.0545100679	 0.150622
H	-0.6705050843	 2.012213434	 0.5047914144	 0.148823
H	-0.0990685372	-2.7166803383	-1.9730303678	 0.126769
H	-0.138436241	-0.686141221	 3.1753576324	 0.263047
H	 0.3117233532	 0.8046673487	 2.5031237674	 0.255097
131.3908	161.351	236.2751	273.6326	281.6196	327.231	388.6883	479.3581	521.2824	548.5083	572.0374	584.7912	672.177	696.4329	795.0771	864.6637	899.2684	949.1298	1056.7068	1061.9658	1145.1724	1184.9316	1229.3875	1257.6054	1337.6921	1405.1835	1422.8017	1483.2239	1490.4698	1504.7093	1592.3849	1626.5521	1652.0024	3022.9269	3076.4122	3145.5624	3196.4152	3572.5761	3687.8017
CC1=C(F)C=NN=C1N	Cc1c(F)cnnc1N	
InChI=1S/C5H6FN3/c1-3-4(6)2-8-9-5(3)7/h2H,1H3,(H2,7,9)	InChI=1S/C5H6FN3/c1-3-4(6)2-8-9-5(3)7/h2H,1H3,(H2,7,9)
