17
gdb 88269	3.15701	1.06696	0.95154	3.0519	72.63	-0.2524	-0.0644	0.188	1283.7876	0.134434	-455.147958	-455.13865	-455.137706	-455.182501	33.877	
C	 0.3876075137	 1.5324761318	-0.5892506359	-0.434893
C	 0.0405738672	 0.1493962923	-0.1079916599	 0.08949
O	 1.1039372393	-0.7626735009	 0.107787518	-0.239038
C	 0.3438266339	-0.3778602008	 1.2534102708	-0.054142
C	 1.048468867	 0.4665633242	 2.2650547995	 0.358635
O	 2.0690043306	 1.0830710148	 2.0371823174	-0.332142
C	 0.4143075006	 0.5412649309	 3.6481580927	 0.271711
N	 1.0540920063	 1.4333121257	 4.4550903744	-0.53671
N	-0.6154926082	-0.1850094625	 3.8841070211	-0.509811
H	 1.2448353088	 1.9339049448	-0.0479037494	 0.158605
H	 0.6346807212	 1.4968835812	-1.6555410229	 0.131748
H	-0.4696518848	 2.202858752	-0.4667602264	 0.122459
H	-0.8365139729	-0.3003686005	-0.5791848119	 0.101311
H	-0.3156360097	-1.133636762	 1.6666915844	 0.134438
H	 1.9395553618	 1.7814856912	 4.1187732222	 0.273706
H	 0.8845505121	 1.4309637313	 5.4460894399	 0.255357
H	-0.961212297	-0.0556533533	 4.8376118359	 0.209275
55.6738	70.8557	177.5026	183.0422	221.9434	294.668	320.999	373.8812	384.154	425.8366	496.7144	520.6897	554.0903	627.6674	766.311	810.4577	846.3008	871.8004	889.0693	979.5142	1028.6623	1069.3505	1082.6791	1115.4293	1149.1403	1169.0037	1172.715	1277.1136	1383.5581	1406.4482	1435.5075	1451.667	1490.5649	1503.0477	1599.7514	1713.5794	1782.6515	3041.7614	3084.0662	3101.7598	3154.6935	3181.3963	3444.3801	3582.1626	3717.5253
CC1OC1C(=O)C(N)=N	C[C@H]1O[C@H]1C(=O)C(=N)N	
InChI=1S/C5H8N2O2/c1-2-4(9-2)3(8)5(6)7/h2,4H,1H3,(H3,6,7)	InChI=1S/C5H8N2O2/c1-2-4(9-2)3(8)5(6)7/h2,4H,1H3,(H3,6,7)/t2-,4-/m1/s1
