17
gdb 27811	2.0248	1.81284	0.96791	2.2655	81.98	-0.2262	-0.0436	0.1826	1202.5692	0.135638	-418.067114	-418.058542	-418.057598	-418.10036	31.636	
C	-0.0007789951	 1.5077883785	 0.1278073504	-0.466921
C	-0.0441744732	 0.0143982219	 0.030355192	 0.300708
C	-1.1828619495	-0.69328691	-0.1304196327	-0.201938
C	-1.1487222524	-2.1332920499	-0.21664396	 0.374693
N	-2.1560007478	-2.8871223359	-0.3668388034	-0.538922
O	 0.1421914821	-2.6852744464	-0.1187472621	-0.253996
C	 1.2250262777	-1.888085358	 0.0418980575	 0.408144
C	 2.4893975373	-2.6805138233	 0.1221282527	-0.471033
N	 1.2032175834	-0.6110512873	 0.1192186177	-0.362332
H	 0.6328656227	 1.9174485404	-0.6664795627	 0.143243
H	-0.9970561758	 1.9479059097	 0.0532218191	 0.127224
H	 0.4542994777	 1.8088179265	 1.077806213	 0.143242
H	-2.1555662122	-0.225005099	-0.2009258141	 0.120106
H	-1.8763196488	-3.8675094368	-0.399251169	 0.221308
H	 2.4429974314	-3.3825572908	 0.9608828297	 0.150967
H	 2.6222312539	-3.2737456296	-0.7883442381	 0.150965
H	 3.3343882486	-2.0058375201	 0.2506917401	 0.154543
120.8114	136.1206	149.1136	181.4422	198.44	276.4181	319.1276	481.0859	520.6156	541.0439	556.3926	617.4871	633.7902	737.8854	843.0716	862.0337	889.5961	947.7266	961.4013	1034.2258	1051.3999	1060.6558	1068.8969	1097.1845	1210.0433	1220.4455	1333.5464	1373.7836	1407.8994	1417.055	1469.3262	1469.5493	1474.4579	1479.9745	1648.1144	1682.0331	1757.1003	3037.1803	3048.4794	3092.6814	3105.7638	3135.2911	3170.7414	3224.6384	3494.2933
CC1=CC(=N)OC(C)=N1	C[C@H]1C=C([NH])OC(=N1)C	
InChI=1S/C6H8N2O/c1-4-3-6(7)9-5(2)8-4/h3,7H,1-2H3	InChI=1S/C6H9N2O/c1-4-3-6(7)9-5(2)8-4/h3-4,7H,1-2H3/t4-/m0/s1
