18
gdb 76252	2.43504	1.40008	0.96681	5.9451	75.18	-0.2525	-0.0354	0.2171	1225.4643	0.145989	-439.136906	-439.127525	-439.126581	-439.171403	33.246	
C	-0.0449429477	 1.6087597751	 0.1601176177	-0.404121
C	 0.0301601524	 0.095039658	 0.0271518224	 0.024389
C	 0.7347367147	-0.517488016	-1.2350396468	-0.17267
C	 1.2703774242	 0.3861764346	-2.3386520062	-0.409583
C	 1.7731362549	-1.0982990493	-0.2569026884	 0.442761
O	 2.7721744665	-1.7440515904	-0.3447129314	-0.319948
N	 1.081761638	-0.5544384119	 0.8511429507	-0.136
C	 1.2316117728	-0.6389819893	 2.2225434421	 0.149516
O	 2.1218851063	-1.2137781918	 2.7920978353	-0.269853
H	 0.9358179188	 2.0735070385	 0.0298049127	 0.133616
H	-0.7275750244	 2.0214294125	-0.5892136914	 0.132219
H	-0.4249811812	 1.8938954325	 1.1460944479	 0.129959
H	-0.9532918093	-0.3499603324	 0.2109679782	 0.099671
H	 0.1355909015	-1.3245830763	-1.6685538432	 0.114649
H	 1.8944985477	 1.1923895983	-1.944144429	 0.130561
H	 1.8864589115	-0.2022601679	-3.0242425609	 0.146467
H	 0.4549812432	 0.8336935047	-2.9149418247	 0.125322
H	 0.4131498702	-0.1039844091	 2.7469467052	 0.083043
60.6311	115.6427	161.3799	195.7785	199.6151	216.103	237.9491	271.8884	345.899	467.2191	488.6341	556.7605	671.5299	733.2265	779.0978	790.1893	974.1607	992.2285	1009.7898	1035.0162	1050.4227	1085.9751	1138.505	1165.4831	1172.9872	1238.5406	1271.8426	1337.0414	1366.909	1382.9123	1410.6712	1417.9313	1435.7253	1484.9455	1491.6413	1499.9846	1508.0305	1806.9936	1912.8158	2920.355	3041.7614	3046.6279	3048.6448	3067.0693	3109.0408	3115.6635	3121.6363	3128.6799
CC1C(C)C(=O)N1C=O	C[C@H]1[C@@H](C)C(=O)N1C=O	
InChI=1S/C6H9NO2/c1-4-5(2)7(3-8)6(4)9/h3-5H,1-2H3	InChI=1S/C6H9NO2/c1-4-5(2)7(3-8)6(4)9/h3-5H,1-2H3/t4-,5+/m1/s1
