16
gdb 57075	3.1595	1.17856	1.03643	3.5044	64.97	-0.284	0.0038	0.2878	1153.8003	0.124126	-475.001527	-474.993096	-474.992152	-475.034994	30.894	
O	 0.2743611251	 1.5263629696	 0.1030708796	-0.421634
C	 0.0753683439	 0.1228478582	 0.0470974268	-0.058418
C	 0.6088493685	-0.444327903	-1.2061796154	 0.27387
N	 1.0368205357	-0.8954256303	-2.1796798	-0.306404
C	 0.7072280832	-0.5453953907	 1.2786099785	 0.06338
O	 2.0119593746	 0.0140628541	 1.5360797163	-0.302622
C	 1.6072722129	 0.5074040492	 2.84193803	-0.118049
C	 0.1678334937	-0.0262330382	 2.646952309	 0.081912
O	-0.8877097894	 0.8877707924	 2.6301250007	-0.428075
H	 1.2246014838	 1.6403913589	 0.2592825722	 0.307285
H	-1.0065346805	-0.0448515749	 0.0732768835	 0.158293
H	 0.7414158785	-1.6335324854	 1.1559344554	 0.107076
H	 2.1928289083	 0.0449474924	 3.6432538758	 0.122248
H	 1.6823300878	 1.5985712146	 2.9137510823	 0.112179
H	-0.1168660036	-0.8202461453	 3.3393620793	 0.111555
H	-0.6814908025	 1.5609307283	 1.9648229361	 0.297401
76.277	110.06	140.1573	219.5917	245.2279	292.1361	392.5711	429.3673	503.6376	543.4571	586.3746	628.1177	704.3373	801.1194	835.6493	888.1361	942.1549	971.313	1007.7069	1031.7712	1051.2199	1101.2834	1152.5936	1172.7499	1227.233	1242.3623	1270.9688	1299.8624	1333.9777	1350.134	1365.9583	1430.4417	1463.9722	1514.7587	2359.6878	3031.0129	3052.7755	3074.6213	3084.2428	3106.8557	3719.586	3729.4027
OC(C#N)C1OCC1O	O[C@@H](C#N)[C@H]1OC[C@H]1O	
InChI=1S/C5H7NO3/c6-1-3(7)5-4(8)2-9-5/h3-5,7-8H,2H2	InChI=1S/C5H7NO3/c6-1-3(7)5-4(8)2-9-5/h3-5,7-8H,2H2/t3-,4+,5+/m0/s1
