18
gdb 51751	2.69335	1.0647	0.84598	3.6059	77.02	-0.2604	-0.035	0.2254	1346.587	0.146984	-401.962839	-401.953801	-401.952857	-401.998043	31.903	
O	-0.8777395834	 1.3620867355	 0.6220172957	-0.234775
C	 0.0957498675	 1.1683914641	-0.0596452838	 0.155059
C	 1.3377495628	 2.0317391907	-0.0471150501	-0.288838
C	 1.3831674879	 2.8898316764	-1.3201024273	-0.021021
C	 0.3923583909	 4.0918631206	-1.3082416398	-0.233421
C	 1.5586949147	 5.0350508692	-0.912247195	-0.228508
C	 2.562523094	 3.9297800079	-1.369023227	-0.153918
C	 3.7450502031	 3.6813019181	-0.5637573858	 0.277055
N	 4.671623333	 3.4690391273	 0.0953157221	-0.33292
H	 0.1237200197	 0.3273205005	-0.7913296611	 0.079337
H	 1.3215558945	 2.6570298843	 0.8502840076	 0.130797
H	 2.2246746577	 1.3868813703	-0.0085718363	 0.133757
H	 1.3354875085	 2.2443029924	-2.2018047329	 0.089398
H	-0.0003327547	 4.311938733	-2.3038366219	 0.113375
H	-0.4434390663	 4.016179888	-0.6106247591	 0.132631
H	 1.6376289926	 5.9940134959	-1.4259291726	 0.1206
H	 1.6132140079	 5.2080012837	 0.1640269386	 0.13285
H	 2.8719003097	 4.093839122	-2.4051635713	 0.128542
41.722	78.3288	102.962	118.459	209.3354	254.9805	342.403	368.3974	510.5931	533.3549	564.6149	675.9946	759.5035	785.489	888.4464	905.3522	927.0164	952.2178	968.449	1023.5046	1045.0675	1092.238	1101.9859	1135.7622	1202.3071	1222.5746	1236.6941	1265.2451	1271.7104	1282.4453	1306.8202	1345.3459	1375.6443	1427.8484	1467.8082	1484.8366	1500.5912	1831.7408	2350.0553	2860.6782	3035.9929	3058.216	3071.1749	3077.0319	3084.0987	3105.3438	3125.1426	3142.9961
O=CCC1CCC1C#N	O=CC[C@H]1CC[C@H]1C#N	
InChI=1S/C7H9NO/c8-5-7-2-1-6(7)3-4-9/h4,6-7H,1-3H2	InChI=1S/C7H9NO/c8-5-7-2-1-6(7)3-4-9/h4,6-7H,1-3H2/t6-,7+/m1/s1
