15
gdb 30083	3.36716	1.16907	0.89621	3.2011	69.51	-0.2328	-0.0158	0.217	1225.2754	0.112783	-453.992957	-453.984546	-453.983602	-454.027315	28.825	
C	 0.0734027487	 1.3719889665	 0.2781089226	-0.341545
N	-0.0092568657	-0.0656711265	 0.1025754353	-0.059588
C	-0.02574504	-0.7730012175	-1.0682383235	 0.010444
N	-0.1124842133	-2.0673270854	-0.8723633959	-0.263501
C	-0.1666923849	-2.2329848448	 0.4923718734	-0.182142
C	-0.1013573259	-1.0080835111	 1.1003930177	 0.322239
O	-0.1390808488	-0.5951447365	 2.4022162881	-0.223303
C	 0.7656417446	-1.1566034943	 3.2677832937	 0.15699
O	 0.7483735192	-0.9158383228	 4.431008001	-0.248068
H	 0.9808368482	 1.6484089697	 0.8222881849	 0.151706
H	 0.0959657781	 1.8401534897	-0.7069809002	 0.149988
H	-0.7928095169	 1.7446384417	 0.8306959385	 0.160384
H	 0.0219445539	-0.2763225896	-2.026343614	 0.134555
H	-0.2641511593	-3.2033643885	 0.9534223706	 0.123652
H	 1.4660498719	-1.8295440606	 2.7437712479	 0.108189
57.1386	63.3811	135.6114	159.8746	200.2237	264.2698	380.5338	480.2473	492.7684	664.1984	681.0344	702.6751	804.1042	827.1757	843.9198	940.83	1043.8452	1075.2422	1102.9644	1138.8284	1153.4148	1221.4126	1264.1849	1301.2307	1380.8602	1399.1044	1433.9077	1462.316	1481.2374	1513.2048	1542.0839	1593.7664	1882.6355	3000.3791	3051.3177	3117.0716	3148.4349	3245.3929	3255.3552
CN1C=NC=C1OC=O	Cn1cncc1OC=O	
InChI=1S/C5H6N2O2/c1-7-3-6-2-5(7)9-4-8/h2-4H,1H3	InChI=1S/C5H6N2O2/c1-7-3-6-2-5(7)9-4-8/h2-4H,1H3
