19
gdb 107259	2.44606	1.73118	1.24218	2.6808	74.68	-0.204	0.0601	0.2641	1049.6763	0.158041	-422.941509	-422.93294	-422.931996	-422.974319	33.705	
O	 0.0661349028	 1.4191221884	 0.0315174098	-0.427315
C	-0.0021992052	 0.0063263752	-0.0759820342	-0.174873
C	-1.4080151107	-0.5229078335	-0.0240261004	 0.283146
C	-1.9119545804	-1.7044111556	-0.8094920831	-0.369349
C	-2.543401948	-0.3514476614	-1.0200565082	-0.087057
C	-3.4989352746	 0.0965562399	 0.1205237167	-0.145902
C	-3.6162700926	-0.9112124121	 1.2643611898	-0.370776
C	-2.3765317846	-0.0925912682	 1.1192284543	 0.355641
O	-1.8152808553	 0.726319256	 2.0976131432	-0.469725
H	-0.3631491575	 1.6455988303	 0.8659368068	 0.290032
H	 0.4461218733	-0.2543272718	-1.0413287363	 0.102341
H	 0.6074017564	-0.4785459524	 0.7048856657	 0.088863
H	-1.2481411486	-2.0127830041	-1.6130286589	 0.114326
H	-2.437063409	-2.5357201891	-0.3523200782	 0.111651
H	-2.5054223702	 0.1572851946	-1.9746002478	 0.097599
H	-4.2163548582	 0.8990356567	 0.0070964121	 0.094331
H	-4.2794034123	-0.5559096699	 2.051704042	 0.102139
H	-3.6692634592	-1.9870407615	 1.1251623349	 0.114885
H	-2.504787736	 1.0203680784	 2.7014559818	 0.290044
105.5011	137.583	152.6785	222.2797	269.8566	387.7559	389.5341	443.8815	462.7567	494.6757	532.8784	615.737	619.5073	759.9858	783.0136	842.6921	891.7718	931.6122	939.0797	949.6942	973.4366	986.4042	1017.7818	1030.142	1051.0611	1061.8758	1079.3022	1095.9543	1122.2016	1181.3084	1245.5832	1259.929	1270.8931	1341.5983	1362.4697	1393.4441	1403.9217	1452.0615	1487.1288	1494.7419	1515.4429	2962.0013	3061.0095	3099.2865	3125.2964	3173.7441	3190.5319	3198.2019	3203.3794	3776.9272	3822.5773
OCC12CC1C1CC21O	OC[C@]12C[C@H]1[C@H]1C[C@@]21O	
InChI=1S/C7H10O2/c8-3-6-1-4(6)5-2-7(5,6)9/h4-5,8-9H,1-3H2	InChI=1S/C7H10O2/c8-3-6-1-4(6)5-2-7(5,6)9/h4-5,8-9H,1-3H2/t4-,5+,6+,7-/m0/s1
