16
gdb 125167	3.38188	1.57134	1.08728	3.8429	78.35	-0.2384	-0.0263	0.2121	1068.8864	0.125787	-400.761304	-400.754033	-400.753089	-400.793204	27.793	
C	 0.0740654868	 1.5095877482	 0.0347605785	-0.492695
C	-0.0821980207	 0.0306521353	 0.0707707685	 0.270606
C	-1.1281043971	-0.8256059025	-0.0005298701	 0.083313
C	-2.6137693086	-0.9877752352	-0.1382262087	-0.42902
C	-2.7471199567	-2.5074473219	-0.0985891448	-0.070739
C	-1.562638753	-3.1332295514	 0.0372772829	-0.180596
C	-0.5239812959	-2.1111885655	 0.1021518369	 0.37985
N	 0.7768147639	-2.0705856449	 0.2262147343	-0.265053
O	 1.0639003792	-0.6911864239	 0.2062517255	-0.229866
H	 0.7107636693	 1.8168830278	-0.801441016	 0.151072
H	-0.9003214537	 1.9893758168	-0.0763055935	 0.135673
H	 0.5405112905	 1.8776457225	 0.9545512614	 0.151067
H	-3.1842326425	-0.5175751444	 0.6734367925	 0.133389
H	-3.0156759367	-0.5779457028	-1.0740810733	 0.133389
H	-3.7090736401	-2.9999423637	-0.1743592671	 0.109942
H	-1.3984003246	-4.2004807146	 0.0899885232	 0.119669
83.7281	162.4822	244.7408	252.6197	315.8457	455.3485	513.471	594.8523	615.2507	663.0604	708.9032	778.7127	785.4262	858.4622	898.3591	926.0788	954.6085	971.7441	990.6553	1062.162	1084.1287	1120.4997	1154.3818	1176.725	1255.8787	1286.914	1350.6009	1408.2214	1422.1602	1456.7141	1473.9553	1487.0348	1580.0673	1613.9893	1715.2931	3023.4055	3040.7794	3048.2635	3097.111	3134.3506	3207.3263	3239.9529
CC1=C2CC=CC2=NO1	Cc1c2CC=Cc2no1	
InChI=1S/C7H7NO/c1-5-6-3-2-4-7(6)8-9-5/h2,4H,3H2,1H3	InChI=1S/C7H7NO/c1-5-6-3-2-4-7(6)8-9-5/h2,4H,3H2,1H3
