17
gdb 32075	2.9446	1.26282	0.89358	2.4789	77.69	-0.2446	-0.03	0.2146	1268.5863	0.136522	-418.066455	-418.057695	-418.056751	-418.101022	30.959	
C	-0.0177441638	 1.5204252651	 0.0677471244	-0.468431
C	 0.0314556686	 0.0199077475	-0.0154249981	 0.330496
C	-0.0180488873	-0.6580959948	-1.2330270768	-0.215452
C	 0.0344224555	-2.0466169507	-1.1957452125	 0.307324
C	-0.0106512469	-2.8947090913	-2.4416200615	-0.155195
O	-0.1099747097	-2.0664638507	-3.5829121612	-0.417393
N	 0.1288660295	-2.7196871119	-0.0424993118	-0.311768
C	 0.1690076393	-1.9750483606	 1.0607090794	 0.054612
N	 0.1261103455	-0.6469841356	 1.144964661	-0.306335
H	 0.879974737	 1.8987285207	 0.5669357304	 0.145741
H	-0.0943443861	 1.979393265	-0.9203303937	 0.123076
H	-0.8734303977	 1.8353364518	 0.6734163392	 0.14574
H	-0.0943213029	-0.1362901763	-2.1773399281	 0.12221
H	 0.8961787463	-3.5191330519	-2.4602836435	 0.118123
H	-0.8657842661	-3.5828366278	-2.3531751823	 0.118123
H	-0.136996567	-2.6283260255	-4.3617363693	 0.296024
H	 0.2457760958	-2.514891003	 2.0024347043	 0.113103
45.9279	62.484	165.3773	188.6515	197.0144	231.6829	355.6592	447.4135	456.8994	551.9161	565.7295	592.6507	777.1767	798.5827	896.717	938.3357	998.2953	1004.1097	1023.0478	1040.0846	1062.1737	1100.2945	1163.9237	1210.9984	1243.4344	1263.8398	1276.0792	1348.4015	1383.706	1409.5948	1452.8478	1474.57	1482.1902	1496.0416	1507.5388	1588.8502	1629.2524	2979.3052	3005.1767	3043.6975	3104.9053	3132.0339	3154.4944	3226.4532	3848.5072
CC1=CC(CO)=NC=N1	Cc1cc(CO)ncn1	
InChI=1S/C6H8N2O/c1-5-2-6(3-9)8-4-7-5/h2,4,9H,3H2,1H3	InChI=1S/C6H8N2O/c1-5-2-6(3-9)8-4-7-5/h2,4,9H,3H2,1H3
