16
gdb 25471	3.45837	1.40659	1.11228	3.0027	77.05	-0.204	-0.038	0.166	1072.8511	0.125169	-400.752972	-400.745443	-400.744499	-400.786009	27.799	
O	-0.6919547761	 0.3068741781	 0.0675258954	-0.231421
C	-0.2696239809	 1.4124174167	-0.1389561799	 0.158931
C	 1.1675631958	 1.8355036263	 0.0474245829	-0.082436
C	 1.4615725137	 2.7878281163	 1.2909969725	-0.417437
C	 2.3722860646	 1.6600874501	 1.7456478439	 0.352373
C	 3.3109396449	 1.0193753387	 2.5181251108	-0.332227
C	 3.5483779799	-0.2257694247	 1.8467532167	-0.128203
C	 2.7693923657	-0.2989111973	 0.7027284538	-0.150768
N	 2.0599800112	 0.8692701772	 0.6815856977	 0.045885
H	-0.9276753287	 2.2386475093	-0.4954564573	 0.08287
H	 1.5426537844	 2.2452808771	-0.9002294323	 0.11971
H	 1.938578592	 3.7337518203	 1.0232383033	 0.130998
H	 0.5889501399	 2.9913116565	 1.9186288495	 0.131018
H	 3.7753206056	 1.3575677707	 3.4305246268	 0.098266
H	 4.2197691392	-1.0015307958	 2.1844840667	 0.095832
H	 2.6590154587	-1.0726168294	-0.0380476305	 0.126609
43.7517	90.213	189.589	206.612	327.2787	473.0929	601.1571	628.1967	662.094	695.6305	706.6745	765.3948	772.7116	828.8152	889.4491	911.6066	930.8748	988.3558	1032.7528	1051.9502	1079.4236	1114.9953	1126.7424	1196.5123	1217.6779	1253.0471	1299.3323	1335.708	1410.4252	1416.0098	1451.3306	1476.9085	1501.8202	1587.3596	1841.7945	2866.5044	3022.9281	3057.2824	3106.3981	3240.0812	3262.6487	3281.8562
O=CC1CC2=CC=CN12	O=C[C@H]1Cc2cccn12	
InChI=1S/C7H7NO/c9-5-7-4-6-2-1-3-8(6)7/h1-3,5,7H,4H2	InChI=1S/C7H7NO/c9-5-7-4-6-2-1-3-8(6)7/h1-3,5,7H,4H2/t7-/m1/s1
