20
gdb 65726	3.94015	0.98655	0.92723	2.1707	78.81	-0.2417	-0.0257	0.216	1310.7841	0.169421	-403.108455	-403.09948	-403.098536	-403.142489	33.564	
C	-0.1371440129	 1.5510573292	 0.0928989334	-0.459588
C	 0.0629324565	 0.0389617026	-0.0070461828	 0.296697
C	-1.2603406174	-0.6685114229	-0.3601029682	-0.329422
C	-1.8418473534	-0.2330241183	-1.6868631628	 0.155831
O	-2.9798607718	 0.1229408711	-1.8556153464	-0.241064
C	 1.2653106632	-0.4965702909	-0.8513075449	-0.222276
N	 1.8053717047	-1.3036421997	 0.2999962806	-0.125462
C	 2.1612744673	-0.3128006201	 1.3306059333	-0.255896
C	 0.7380966759	-0.6665812789	 1.1787274851	-0.060639
H	 0.7833002647	 2.0628524689	 0.3857374409	 0.117585
H	-0.4592904952	 1.9731902922	-0.8658852859	 0.12649
H	-0.9080367789	 1.7936862427	 0.8328093368	 0.126051
H	-1.0788807715	-1.7513740068	-0.4194708843	 0.130998
H	-2.0147845037	-0.4977857772	 0.4149948557	 0.118951
H	-1.1274002886	-0.2695716962	-2.54249199	 0.075276
H	 0.9867223085	-1.1550331973	-1.6769086395	 0.110851
H	 1.9695470798	 0.2556334876	-1.2229416719	 0.104457
H	 2.6916087399	-0.7492600427	 2.1716039411	 0.125456
H	 2.5320770974	 0.6616312671	 1.0205374106	 0.11192
H	 0.2045682654	-1.2441391205	 1.9290745692	 0.093783
58.0648	97.4538	156.571	199.6024	215.6358	283.3166	329.9818	376.5258	444.5173	474.15	531.3746	652.3889	744.8403	774.4627	802.9707	863.2148	874.3468	948.1763	962.6521	986.4053	1003.358	1025.8248	1048.9167	1070.3213	1109.9291	1120.0413	1161.5432	1177.7874	1198.4038	1229.3931	1240.34	1283.4738	1306.1582	1317.5939	1374.5402	1419.546	1435.5864	1459.0355	1487.3282	1493.7917	1499.5356	1510.3077	1832.3439	2855.6763	3013.8077	3029.9706	3042.2678	3084.2512	3092.7107	3105.1868	3105.8555	3114.086	3144.5517	3197.0648
CC1(CC=O)CN2CC12	C[C@@]1(CC=O)CN2C[C@@H]12	
InChI=1S/C7H11NO/c1-7(2-3-9)5-8-4-6(7)8/h3,6H,2,4-5H2,1H3	InChI=1S/C7H11NO/c1-7(2-3-9)5-8-4-6(7)8/h3,6H,2,4-5H2,1H3/t6-,7+,8?/m0/s1
