19
gdb 16331	2.97576	1.83629	1.40997	1.6377	71.34	-0.2311	0.0633	0.2944	954.7158	0.165536	-365.015861	-365.007609	-365.006665	-365.048382	31.191	
C	-0.1823736578	 1.5171356715	 0.0254220296	-0.41488
C	 0.020992974	 0.0130221071	-0.0790413981	-0.004731
C	 1.232506132	-0.5452166795	-0.9171309304	-0.238925
C	 1.7245907103	-1.2594030373	 0.3444428563	-0.118248
N	 1.9685788436	-0.1939559121	 1.3501273722	-0.378593
C	 0.5889763911	-0.7295232778	 1.1482913296	 0.320533
C	-0.1852086151	-1.3003450969	 2.2917940731	-0.186405
O	-0.7581918979	-0.2916538992	 3.1159151086	-0.41211
H	 0.7356997254	 2.0020079513	 0.368105596	 0.131901
H	-0.4578024566	 1.9472118284	-0.9436525518	 0.107989
H	-0.9808766876	 1.7483095209	 0.7382639001	 0.119993
H	-0.9041509009	-0.4771225885	-0.4002215581	 0.07305
H	 0.9206288582	-1.2238746966	-1.7138543944	 0.100379
H	 1.9251499801	 0.1989893486	-1.3187570578	 0.10656
H	 2.2446394145	-2.2075542126	 0.418227674	 0.092367
H	 2.3467674057	-0.6585755967	 2.1775855279	 0.220051
H	-1.0311787796	-1.8914877321	 1.9237499015	 0.113
H	 0.4609270602	-1.9806185942	 2.8738327785	 0.079882
H	-0.0549135196	 0.3247618156	 3.3470123032	 0.288188
88.983	112.9657	200.6391	223.7677	284.5791	312.4976	351.7761	403.1031	476.1269	533.1665	666.7723	700.1542	788.7174	858.7739	887.3934	915.7589	933.2748	967.4351	1005.009	1033.3134	1057.6978	1098.4842	1101.1291	1111.4381	1148.6686	1187.6651	1196.6347	1231.3551	1254.6842	1296.638	1326.9669	1358.3576	1379.9949	1399.1458	1415.7669	1447.8649	1479.6467	1490.091	1497.6245	1507.5009	2951.5338	3032.9565	3048.9088	3062.6493	3064.1424	3097.6059	3117.8416	3122.0823	3180.0164	3444.0678	3808.4308
CC1CC2NC12CO	C[C@H]1C[C@H]2N[C@@]12CO	
InChI=1S/C6H11NO/c1-4-2-5-6(4,3-8)7-5/h4-5,7-8H,2-3H2,1H3	InChI=1S/C6H11NO/c1-4-2-5-6(4,3-8)7-5/h4-5,7-8H,2-3H2,1H3/t4-,5+,6-/m0/s1
