21
gdb 119899	2.7577	0.86207	0.80711	3.7362	75.36	-0.2334	0.0612	0.2947	1524.4848	0.179148	-461.333694	-461.322802	-461.321857	-461.369822	39.545	
C	 0.0227851757	 1.6002044433	-0.1626266318	-0.457758
C	 0.0044573686	 0.0986584056	-0.0029300601	 0.312584
O	-1.1490494698	-0.5281692459	-0.5115523726	-0.458464
C	 1.2900527072	-0.7073524591	-0.0768293798	-0.000999
O	 2.5334423765	-0.0634415468	-0.1246319483	-0.413428
C	 0.533175433	-0.5929229916	 1.2298995885	-0.07453
C	 1.1197668768	 0.1363983299	 2.4201445082	-0.234825
C	 2.018425165	-0.7787439994	 3.2593559861	-0.053928
O	 2.5293466291	-0.1334150407	 4.4156872219	-0.421999
H	 0.9668107519	 2.0297822901	 0.1774251287	 0.131056
H	-0.1028313584	 1.8707640901	-1.2195567573	 0.099632
H	-0.797409611	 2.0614064952	 0.396194833	 0.130317
H	-1.1755471992	-0.3733267387	-1.4630220041	 0.275367
H	 1.2361521612	-1.6611581341	-0.602032948	 0.087032
H	 2.6773677775	 0.2510080646	-1.0232265337	 0.289025
H	-0.0372469703	-1.4831171706	 1.4837500861	 0.099338
H	 1.7144187057	 0.9925190143	 2.0853619173	 0.097461
H	 0.3193854387	 0.5268955366	 3.0596731398	 0.105548
H	 1.4418654918	-1.6340809242	 3.6293204896	 0.106642
H	 2.8269202313	-1.1774708324	 2.6282416013	 0.102048
H	 3.1100417987	 0.5746677539	 4.1195288352	 0.279882
53.4423	86.7563	107.1088	182.4916	189.7117	238.5258	259.2084	275.0131	299.5639	306.8188	323.706	383.0804	423.6753	489.7468	511.6654	614.0386	711.0563	788.7387	866.7866	873.2397	959.583	987.0552	1015.8199	1051.7831	1075.1228	1086.679	1113.9589	1129.0449	1148.8692	1190.0118	1239.6201	1278.0845	1290.3399	1291.6468	1318.1183	1354.989	1369.6533	1400.2143	1411.4075	1420.8994	1460.5992	1480.3925	1492.9385	1507.1702	1511.5365	2994.2729	3019.7413	3038.2598	3060.9181	3086.1679	3089.0563	3098.4709	3135.2931	3142.1917	3781.5131	3804.7369	3816.1601
CC1(O)C(O)C1CCO	C[C@@]1(O)[C@@H](O)[C@H]1CCO	
InChI=1S/C6H12O3/c1-6(9)4(2-3-7)5(6)8/h4-5,7-9H,2-3H2,1H3	InChI=1S/C6H12O3/c1-6(9)4(2-3-7)5(6)8/h4-5,7-9H,2-3H2,1H3/t4-,5+,6+/m1/s1
