16
gdb 6012	2.44281	1.95265	1.54437	1.4714	61.87	-0.2571	-0.0599	0.1971	901.4576	0.125996	-420.910305	-420.901208	-420.900264	-420.943793	32.334	
C	-0.8070609601	 0.3563620777	 0.6877487713	-0.492523
C	 0.3563709592	 0.1517736313	-0.2446088419	 0.352123
O	 1.4422707842	 0.6647546987	-0.080157779	-0.322251
C	 0.1693558485	-0.7466219389	-1.4941851555	 0.185985
C	-1.0462767294	-0.2954300541	-2.3251734573	-0.426366
O	 1.3405850214	-0.7072358513	-2.2607804154	-0.465255
C	-0.0421709327	-2.197821371	-1.0157919912	 0.110896
O	-1.0417462816	-2.6115190575	-0.4896966102	-0.245453
H	-0.4516858037	 0.7640589116	 1.634850023	 0.14982
H	-1.5041620529	 1.0717634033	 0.236062685	 0.156837
H	-1.3560707287	-0.5763342462	 0.8380177218	 0.174155
H	-0.9787107056	 0.771664704	-2.5531313113	 0.129307
H	-1.0487072396	-0.8458732151	-3.269164803	 0.143526
H	-1.978456294	-0.5030376974	-1.7961215421	 0.141353
H	 1.9614127412	-0.1566055383	-1.7523036877	 0.295901
H	 0.8424789735	-2.8368382467	-1.2224984064	 0.111944
84.1925	103.0788	155.5008	205.2316	221.7425	257.4657	270.537	372.3017	396.2641	404.96	510.2658	532.8957	605.0966	659.9891	682.7507	878.8102	953.9786	976.4296	986.6178	1048.4194	1119.8871	1158.7976	1180.4666	1239.9813	1368.956	1390.8448	1394.811	1405.0229	1463.6493	1472.046	1488.1516	1497.3883	1789.2303	1824.4149	2918.7946	3045.3158	3051.7037	3115.2072	3127.7787	3144.7265	3160.7107	3641.5758
CC(=O)C(C)(O)C=O	CC(=O)[C@@](C)(O)C=O	
InChI=1S/C5H8O3/c1-4(7)5(2,8)3-6/h3,8H,1-2H3	InChI=1S/C5H8O3/c1-4(7)5(2,8)3-6/h3,8H,1-2H3/t5-/m0/s1
