17
gdb 48889	3.23843	1.52768	1.37041	3.4626	72.68	-0.2451	-0.0293	0.2158	969.6204	0.136973	-421.790289	-421.783426	-421.782482	-421.82182	27.307	
O	-0.0339119519	-0.014628188	-0.2129583179	-0.251347
C	 0.029579951	 1.1810036383	-0.0547877663	 0.036477
C	 1.2906245095	 1.9631626443	 0.0167795809	 0.196767
C	 1.4740293041	 3.1819058395	 0.963253599	-0.304619
C	 2.5111642759	 3.6546833496	-0.0653587671	-0.07828
C	 3.4319281513	 2.4318594874	-0.4769776608	 0.062724
C	 2.6496788714	 1.2533769111	 0.12998149	-0.254436
O	 2.8777459527	 2.4648202471	-1.8334566281	-0.276995
C	 1.7239272976	 2.9849621914	-1.2045599198	 0.074603
H	-0.8986900382	 1.7944129542	 0.0250947174	 0.065187
H	 0.6047907427	 3.8468599783	 0.9702059692	 0.109351
H	 1.7838247695	 2.9678768998	 1.9897620275	 0.109098
H	 2.9251616398	 4.6594227194	-0.1259937694	 0.086074
H	 4.5196248953	 2.4533093794	-0.4483952292	 0.090486
H	 2.9095054454	 1.0175977187	 1.1651767058	 0.104247
H	 2.7344748788	 0.3593756222	-0.4879497117	 0.132055
H	 0.962071525	 3.4179402073	-1.8506964396	 0.098607
73.9137	189.2805	235.3395	393.7067	437.7608	471.6123	537.8862	640.2245	677.6721	737.6347	794.9326	822.5847	850.9962	878.8188	924.7268	934.4419	964.6887	990.9154	1018.0748	1029.9028	1055.5555	1071.7005	1098.3478	1130.8115	1176.0148	1200.5207	1216.6922	1225.7249	1235.8271	1274.555	1289.2562	1331.4881	1343.5146	1430.6955	1478.2222	1502.4012	1807.0254	2853.4583	3051.0534	3074.5712	3106.8089	3132.6995	3140.0945	3144.0022	3147.9591
O=CC12CC3C(C1)OC23	O=C[C@@]12C[C@H]3[C@@H](C1)O[C@@H]23	
InChI=1S/C7H8O2/c8-3-7-1-4-5(2-7)9-6(4)7/h3-6H,1-2H2	InChI=1S/C7H8O2/c8-3-7-1-4-5(2-7)9-6(4)7/h3-6H,1-2H2/t4-,5+,6+,7+/m0/s1
