17
gdb 71145	2.89259	1.81717	1.38387	3.386	73.45	-0.2463	0.0096	0.2558	956.0317	0.13725	-417.980738	-417.973638	-417.972693	-418.011925	28.675	
C	 0.0749338348	 1.476561945	-0.11796177	-0.489557
C	-0.0312529144	-0.0155871199	 0.0318501804	 0.363045
C	-1.3269457693	-0.7075408618	 0.5212264278	-0.193039
N	-0.5401716249	-1.6600144376	 1.3747523533	-0.153252
C	 0.6291585941	-2.1502315992	 0.5607846355	-0.111949
C	 0.6751533539	-0.8069862112	 1.1685200905	-0.104673
C	 0.6252718459	-1.9810772088	-0.9198609309	 0.421763
N	 0.8756038616	-2.8812773936	-1.768837329	-0.555559
O	 0.3627431689	-0.6629596821	-1.1992236766	-0.278417
H	 1.1021555591	 1.765214508	-0.3595396119	 0.137174
H	-0.5781011311	 1.8283635405	-0.9220452948	 0.138743
H	-0.2188885132	 1.9740310988	 0.8104079694	 0.129515
H	-1.9270279935	-0.0796678821	 1.1840691774	 0.119308
H	-1.959123858	-1.1648934055	-0.2461113051	 0.118477
H	 1.1163625539	-3.0155397274	 0.9878341648	 0.12719
H	 1.3211275016	-0.4603519164	 1.9660834339	 0.106718
H	 0.8531933005	-2.4987842768	-2.7158470248	 0.224511
144.6391	214.395	262.4423	279.4361	366.0278	444.3254	463.0412	593.1526	630.3607	678.2807	703.762	787.2518	799.8782	874.1421	885.1106	897.2811	903.5011	942.887	973.4332	984.9753	1006.7642	1051.2895	1086.0753	1147.8054	1167.9902	1191.4598	1204.841	1237.0993	1272.6917	1333.8219	1341.8371	1361.7461	1419.9016	1482.6746	1491.6511	1494.2866	1778.5942	3044.4618	3053.4707	3117.4016	3118.0838	3124.0635	3188.6633	3227.2093	3473.5207
CC12CN3C(C13)C(=N)O2	C[C@]12CN3[C@H]([C@@H]13)[C]([NH])O2	
InChI=1S/C6H8N2O/c1-6-2-8-3(4(6)8)5(7)9-6/h3-4,7H,2H2,1H3	InChI=1S/C6H8N2O/c1-6-2-8-3(4(6)8)5(7)9-6/h3-4,7H,2H2,1H3/t3-,4+,6+,8?/m1/s1
