20
gdb 6939	4.71988	0.97746	0.92026	1.7758	73.05	-0.2494	0.0756	0.325	1334.8184	0.174135	-386.112624	-386.10298	-386.102036	-386.14711	34.742	
C	 0.1204031715	 1.3291290751	-0.1491183138	-0.22391
O	 0.2469385287	-0.0696224714	-0.0876654024	-0.228315
C	 0.4663863373	-0.5410847361	 1.2274340995	-0.08439
C	 0.526880415	-2.0436526002	 1.1888687417	-0.039685
C	 1.8104864278	-2.7727678645	 0.8320592407	-0.342164
C	 1.2339573309	-2.8712545123	 2.2245730017	 0.386755
C	 1.9553651538	-2.2689755507	 3.4104005277	-0.449132
O	 0.531458108	-4.0499888513	 2.5406212518	-0.465616
H	 1.0317826445	 1.8408770713	 0.2015445779	 0.099342
H	-0.0528132767	 1.5977144683	-1.1941900046	 0.125924
H	-0.7262748441	 1.6926384968	 0.4557975871	 0.101468
H	 1.4008550273	-0.1151665783	 1.6297735892	 0.078511
H	-0.3503304317	-0.2038656509	 1.8897355537	 0.087591
H	-0.3812641383	-2.5061105106	 0.8147935086	 0.10419
H	 1.7299869344	-3.6441403234	 0.1922019004	 0.111787
H	 2.7056439928	-2.1760950639	 0.6850042419	 0.107354
H	 2.4814463327	-1.3476707574	 3.1484115786	 0.118842
H	 1.2520215668	-2.0520651809	 4.220805002	 0.126056
H	 2.7034089471	-2.9735194839	 3.7952075588	 0.10734
H	 1.1819865322	-4.7279227855	 2.7564655394	 0.278051
63.7222	90.391	122.4174	207.9774	217.0654	239.0679	288.0174	310.6256	328.2042	386.4532	426.2882	472.9819	528.8346	705.5269	864.2012	883.5622	914.7993	926.5015	981.1223	992.9687	1037.2586	1068.7641	1089.1209	1125.687	1152.5273	1175.5678	1192.842	1224.994	1243.6696	1278.0661	1293.6741	1347.6396	1396.2987	1415.0916	1439.9972	1478.7775	1480.8705	1485.7581	1486.9448	1502.6702	1512.8631	1525.7613	2944.9978	2964.5047	2975.8436	3003.7991	3025.1019	3086.7824	3111.7046	3119.4476	3127.6419	3163.8193	3219.5079	3787.7071
COCC1CC1(C)O	COC[C@H]1C[C@]1(C)O	
InChI=1S/C6H12O2/c1-6(7)3-5(6)4-8-2/h5,7H,3-4H2,1-2H3	InChI=1S/C6H12O2/c1-6(7)3-5(6)4-8-2/h5,7H,3-4H2,1-2H3/t5-,6+/m1/s1
