20
gdb 86453	1.81615	1.62045	0.90074	2.8498	76.34	-0.2372	0.0294	0.2666	1292.2131	0.171909	-440.33957	-440.330553	-440.329608	-440.373248	34.382	
C	-0.020048763	 1.5491248152	-0.0136472413	-0.400698
C	 0.0389267921	 0.0207956173	-0.0223684318	 0.044715
C	 0.6693592702	-0.5263091033	-1.3043139717	-0.188792
C	 0.9084700974	-2.0261530382	-1.1928581256	 0.101836
O	 1.4160373298	-2.4720592731	-2.4422521795	-0.439891
C	 1.8828440592	-2.3010556669	-0.0448398248	-0.336456
C	 1.5419179806	-1.586552532	 1.2601703958	 0.382257
O	 1.9605557646	-1.9715116378	 2.3359870326	-0.375209
N	 0.785267362	-0.4513879462	 1.1442259721	-0.312044
H	 0.985657354	 1.9753567909	-0.0805732542	 0.128815
H	-0.6112720494	 1.9128036541	-0.8593224513	 0.12414
H	-0.4882286136	 1.9201562783	 0.9045031608	 0.116229
H	-0.994540933	-0.3591075439	 0.0345505113	 0.084894
H	 0.0123945802	-0.3152265545	-2.1530356613	 0.111685
H	 1.6277350083	-0.0282001812	-1.4965421496	 0.109029
H	-0.0542559502	-2.5210753586	-0.9776659349	 0.070674
H	 1.6115869656	-3.4118653117	-2.3680871662	 0.283499
H	 1.9622151869	-3.367667612	 0.1848739477	 0.11865
H	 2.8806651633	-1.9638437913	-0.3529624913	 0.13585
H	 0.568018315	-0.0274498751	 2.0361126433	 0.240817
98.0231	102.7142	160.4775	246.4654	267.6068	285.5349	323.11	411.2416	422.3092	462.2174	480.8622	524.6887	551.2242	631.113	667.4452	843.0752	880.4949	905.0527	927.0292	995.8918	998.2168	1059.3511	1083.3448	1108.0109	1120.5171	1171.7993	1196.9495	1244.3986	1266.6975	1301.8477	1315.513	1338.0581	1374.1702	1388.6989	1399.7838	1411.9885	1441.2823	1459.0136	1474.8867	1492.7167	1498.132	1499.4851	1788.2012	2949.7458	2959.3192	3033.7461	3037.1499	3041.8411	3094.2372	3096.9779	3103.2642	3118.2849	3591.3213	3813.672
CC1CC(O)CC(=O)N1	C[C@H]1C[C@@H](O)CC(=O)N1	
InChI=1S/C6H11NO2/c1-4-2-5(8)3-6(9)7-4/h4-5,8H,2-3H2,1H3,(H,7,9)	InChI=1S/C6H11NO2/c1-4-2-5(8)3-6(9)7-4/h4-5,8H,2-3H2,1H3,(H,7,9)/t4-,5+/m0/s1
