18
gdb 79017	3.71658	1.73928	1.58114	0.8401	72.42	-0.2447	0.0804	0.3251	881.9316	0.151841	-401.91697	-401.910913	-401.909969	-401.947023	26.4	
O	 0.1645185808	 1.4103830433	-0.1942207465	-0.445335
C	 0.0297387786	 0.028021173	-0.0252755658	 0.171958
C	 0.2054626142	-0.6352043583	 1.3771444084	-0.113209
C	-0.8917821439	 0.0448279651	 2.2219995568	-0.068262
C	-2.0350519149	 0.037978192	 1.2538902457	-0.068265
C	-1.3778024861	-0.6446919126	 0.036451316	-0.113211
C	-0.6917685677	-1.7985586519	 0.8397012324	-0.055076
C	-1.6407247081	-2.179298289	 1.9630468061	-0.173187
N	-2.0523126381	-0.8491856423	 2.4396914585	-0.126256
H	-0.394402663	 1.8406557233	 0.4627200594	 0.283435
H	 0.6722361613	-0.4322214511	-0.7807634378	 0.088291
H	 1.1810819645	-0.7969926034	 1.8334554303	 0.06687
H	-0.6925019348	 0.803075428	 2.9684297227	 0.095728
H	-2.8093891638	 0.7903910443	 1.1758722702	 0.095728
H	-1.9874839986	-0.8159790393	-0.8496512727	 0.066869
H	-0.1994048604	-2.57899959	 0.2637767428	 0.07852
H	-2.5168507428	-2.7405170403	 1.6220157094	 0.1077
H	-1.1560931074	-2.7323634105	 2.7742907639	 0.1077
208.6289	272.1798	392.2744	432.2007	522.9917	560.1623	723.8156	731.0763	761.1461	772.7334	801.8423	816.7962	852.0799	869.9294	889.1101	950.2749	953.4346	968.0465	985.3646	1021.0727	1033.1903	1037.0136	1071.9509	1111.5812	1122.3051	1164.1529	1173.7858	1207.3506	1223.2071	1226.606	1235.9723	1250.2257	1263.7252	1303.6001	1307.7624	1314.899	1366.374	1446.0964	1496.2063	3047.3345	3082.2225	3095.0681	3124.9223	3125.5155	3147.8377	3188.9583	3198.6913	3798.8117
OC1C2C3C4C1C2CN34	O[C@H]1[C@H]2[C@H]3[C@H]4[C@@H]1[C@@H]2CN34	
InChI=1S/C7H9NO/c9-7-3-2-1-8-5(3)6(8)4(2)7/h2-7,9H,1H2	InChI=1S/C7H9NO/c9-7-3-2-1-8-5(3)6(8)4(2)7/h2-7,9H,1H2/t2-,3-,4+,5+,6-,7+,8?
