16
gdb 5515	3.37203	2.00835	1.27893	2.9829	69.89	-0.1823	0.0299	0.2122	941.1903	0.129951	-379.935967	-379.927486	-379.926542	-379.970353	28.82	
C	-0.0686240976	 1.3980943838	 0.0412364321	-0.315232
N	-0.0123300746	-0.0520955818	-0.0043179411	-0.394075
C	 0.5867362936	-0.6518491165	 0.9339448949	 0.516979
O	 1.2147643197	-0.0747246084	 2.0225691329	-0.227966
C	 1.7451198355	-1.0921342538	 2.7970699941	-0.058083
C	 1.4685608266	-2.2724911317	 2.2337693736	-0.114803
N	 0.7424115022	-2.0208191052	 1.073240584	-0.125552
C	 0.2392856788	-2.9836791281	 0.1211782236	-0.346226
H	 0.9298304823	 1.8591994596	 0.0404425895	 0.109887
H	-0.6057282756	 1.7610113587	-0.8390972696	 0.112955
H	-0.5932528033	 1.7715464597	 0.9328392806	 0.109852
H	 2.2703655116	-0.8018021957	 3.6888287326	 0.147152
H	 1.7150814444	-3.2727144477	 2.546896347	 0.145243
H	-0.4054504048	-3.7207141843	 0.6118698246	 0.130549
H	-0.3422557097	-2.4296395903	-0.6167305348	 0.178312
H	 1.0554692911	-3.5092985982	-0.3880582741	 0.131009
31.6893	59.3359	117.229	184.6544	191.9379	265.4158	306.2629	550.2496	570.671	634.7221	666.0632	730.2702	771.6347	779.3558	891.5947	1030.2176	1041.0381	1086.7737	1120.4521	1124.3939	1154.2048	1157.3403	1183.2745	1284.5352	1353.0831	1424.7192	1448.3156	1469.4021	1492.8791	1496.3237	1501.1537	1512.095	1660.6663	1794.312	2984.0764	3024.3022	3027.1062	3079.3745	3094.931	3151.4569	3281.1125	3313.3951
CN=C1OC=CN1C	CN=c1occn1C	
InChI=1S/C5H8N2O/c1-6-5-7(2)3-4-8-5/h3-4H,1-2H3	InChI=1S/C5H8N2O/c1-6-5-7(2)3-4-8-5/h3-4H,1-2H3
