18
gdb 96660	2.56809	1.14904	0.8351	4.8797	81.91	-0.2408	-0.0537	0.1871	1378.8516	0.145326	-435.283831	-435.273463	-435.272519	-435.321742	35.167	
C	-1.2009829214	 0.7130126767	-0.9321639964	-0.331905
N	-0.4660647616	-0.438222974	-0.4670156425	-0.264556
C	 0.7580938056	-0.6428925887	-0.747200817	 0.369392
C	 1.72103506	 0.2421759411	-1.5082013705	-0.490802
N	 1.325455786	-1.8528558738	-0.3470849781	-0.351424
C	 0.6287271696	-2.8263379486	 0.3635038884	 0.282367
N	 1.2412115685	-3.5559955062	 1.2072653103	-0.493041
C	-0.8198467212	-3.0647769953	-0.0236121894	 0.130923
O	-1.5729014657	-3.6438255644	 0.7174593052	-0.263006
H	-0.6173508131	 1.4482260225	-1.5021771693	 0.103969
H	-2.0301959263	 0.3815666641	-1.5693600061	 0.133002
H	-1.6513702346	 1.223201687	-0.0732823346	 0.136216
H	 2.7254231072	 0.1772811726	-1.0787929701	 0.135727
H	 1.789980535	-0.0787049043	-2.5530862828	 0.155065
H	 1.4121304594	 1.2866667449	-1.4891243686	 0.149976
H	 2.3242233745	-1.8752143893	-0.1948732667	 0.255377
H	 0.5800107836	-4.2425338127	 1.5781309639	 0.241724
H	-1.1014514157	-2.7714346014	-1.0488994558	 0.100999
13.6079	59.5087	80.0473	86.1721	111.4411	221.8598	279.2923	327.8326	345.8031	378.1413	426.7552	520.1659	571.9672	621.8623	645.6239	700.6821	837.6159	894.3554	919.5749	997.5147	1006.7055	1050.123	1119.5213	1137.3803	1145.0566	1164.4196	1276.6689	1365.277	1402.3995	1440.5811	1449.4524	1471.5363	1480.7262	1484.7339	1488.1137	1510.7644	1703.6963	1750.3319	1809.2445	2985.6036	3001.8788	3047.598	3061.5614	3076.4731	3104.9974	3156.2583	3459.2557	3600.7513
CN=C(C)NC(=N)C=O	CN=C(C)NC(=N)C=O	
InChI=1S/C5H9N3O/c1-4(7-2)8-5(6)3-9/h3H,1-2H3,(H2,6,7,8)	InChI=1S/C5H9N3O/c1-4(7-2)8-5(6)3-9/h3H,1-2H3,(H2,6,7,8)
