23
gdb 121878	3.19655	0.73773	0.65111	3.4928	83.97	-0.2269	0.0633	0.2902	1823.6941	0.204917	-421.653532	-421.642191	-421.641247	-421.691329	39.798	
C	 0.0920086006	 1.5512294053	-0.0087838569	-0.379501
C	 0.0071356199	 0.0223792953	-0.0048840797	-0.161302
C	-1.4340222363	-0.4969883625	 0.0119654194	-0.164142
C	-1.5081807722	-2.028685614	 0.0331558746	-0.176405
N	-2.8729508671	-2.5469816336	 0.0189316075	-0.084586
C	-3.5349020075	-2.7275785926	-1.2589555564	-0.354496
C	-3.4856488637	-2.7738907371	 1.2273336743	 0.439362
N	-4.7647521866	-3.3294746737	 1.1581541638	-0.571605
O	-2.9749314648	-2.4762576528	 2.296154417	-0.414644
H	 1.1313454806	 1.8942880192	-0.0184985331	 0.110321
H	-0.4065077093	 1.9730750663	-0.8887213957	 0.111102
H	-0.3911897239	 1.9744217818	 0.878489796	 0.118786
H	 0.5295935018	-0.3757095778	-0.8856244641	 0.089532
H	 0.5424578937	-0.3718875657	 0.8687226211	 0.10275
H	-1.9581300989	-0.1210225995	 0.8978634947	 0.121894
H	-1.9736505664	-0.1108281796	-0.8639543027	 0.084994
H	-0.9762642778	-2.4483084637	-0.8300658116	 0.09077
H	-1.0257505424	-2.4026215681	 0.9386286919	 0.136764
H	-3.4118456983	-3.7436769134	-1.664911814	 0.115728
H	-4.602608651	-2.5106149746	-1.1742602577	 0.144702
H	-3.1155633503	-2.0285558109	-1.9876890383	 0.134831
H	-4.9438405394	-4.0132858504	 0.4381262257	 0.247821
H	-5.0742997707	-3.622536558	 2.0730767344	 0.257325
42.4547	68.3388	82.1839	91.7779	128.1104	142.5525	205.6842	243.4791	291.3145	347.4588	395.2756	421.8531	439.6319	555.4154	581.1946	604.8565	738.2524	781.2667	790.4075	796.1787	909.8192	939.6518	1006.0383	1048.9725	1061.9856	1103.7635	1117.9638	1129.7071	1147.2058	1231.1863	1269.9967	1292.1537	1296.4796	1329.7515	1355.5721	1385.4237	1408.132	1415.2751	1430.7658	1465.2263	1486.0704	1490.3898	1497.7233	1498.9316	1502.0955	1512.0955	1526.0346	1623.7062	1775.3093	2982.695	3009.9021	3015.0867	3026.0141	3029.7817	3042.5179	3074.315	3077.5184	3097.0315	3101.9751	3114.7957	3118.606	3571.2307	3681.4898
CCCCN(C)C(N)=O	CCCCN(C)C(=O)N	
InChI=1S/C6H14N2O/c1-3-4-5-8(2)6(7)9/h3-5H2,1-2H3,(H2,7,9)	InChI=1S/C6H14N2O/c1-3-4-5-8(2)6(7)9/h3-5H2,1-2H3,(H2,7,9)
