19
gdb 81241	2.93599	1.55518	1.43096	1.5706	75.05	-0.2393	0.0563	0.2955	1008.862	0.159529	-422.929327	-422.921739	-422.920795	-422.961156	30.251	
C	-0.0583093503	 1.54707375	 0.084561998	-0.439947
C	-0.005241213	 0.0357103429	-0.0306284789	-0.004307
C	 1.2328050958	-0.6323837938	-0.6437657991	-0.037256
O	 2.0375466236	-0.2449025906	 0.5704056445	-0.375451
C	 0.7446566547	-0.7877079297	 1.0731717976	 0.403611
C	 0.1442048549	-1.3495367577	 2.3294260528	-0.40097
C	-0.7532795894	-2.4540464413	 1.6318434581	-0.067843
O	-0.3145697263	-2.6502685165	 0.251356533	-0.285534
C	 0.9044313663	-1.9552988936	 0.140652339	 0.096063
H	 0.9068459474	 1.9445656701	 0.4046101259	 0.137888
H	-0.3192841842	 1.9992325245	-0.8784345157	 0.116508
H	-0.821399149	 1.8571342406	 0.8069186043	 0.112707
H	-0.954278068	-0.4049422025	-0.3451865835	 0.090892
H	 1.7303703043	-0.4793569607	-1.6023392298	 0.091083
H	 0.9030314546	-1.8070719716	 2.9701512273	 0.128086
H	-0.4566418576	-0.6579041863	 2.9242103529	 0.116938
H	-0.6835516256	-3.4076242071	 2.165361119	 0.116452
H	-1.803915334	-2.150759141	 1.6000692919	 0.118339
H	 1.7843193959	-2.5871734657	 0.2971175828	 0.082741
112.2645	197.2032	217.1839	225.759	334.1067	353.6609	443.7203	544.0673	628.51	676.2571	705.6314	747.0999	797.6473	829.9186	865.6384	888.5849	907.9254	938.6558	955.6645	1000.5883	1053.0546	1070.6237	1084.6135	1107.3586	1138.8346	1155.4126	1181.5664	1191.978	1211.9036	1223.2344	1252.2517	1269.8154	1314.5559	1359.4383	1377.7784	1397.9569	1417.1529	1488.7329	1494.1356	1505.4314	1518.0752	3035.1969	3044.0571	3062.3561	3066.8115	3086.5001	3087.6899	3091.0777	3112.4817	3120.1532	3134.7977
CC1C2OC11CCOC21	C[C@H]1[C@H]2O[C@]31CCO[C@@H]23	
InChI=1S/C7H10O2/c1-4-5-6-7(4,9-5)2-3-8-6/h4-6H,2-3H2,1H3	InChI=1S/C7H10O2/c1-4-5-6-7(4,9-5)2-3-8-6/h4-6H,2-3H2,1H3/t4-,5+,6-,7-/m0/s1
