17
gdb 27555	5.00325	0.97212	0.86037	1.8693	74.89	-0.1968	0.0515	0.2483	1325.2922	0.137734	-418.038465	-418.030435	-418.02949	-418.071792	30.663	
O	 0.0000357998	 1.3008076101	 0.0901153742	-0.42674
C	 0.0096346732	-0.0417767231	 0.0163223119	 0.440888
N	-0.003956195	-0.7676068291	-1.0667379012	-0.418788
C	 0.0172207513	-2.0862193388	-0.6142877155	 0.285354
C	 0.0479859346	-2.1125179089	 0.7519677729	-0.205528
N	 0.0356945645	-0.7777972844	 1.1530079014	-0.300407
C	 0.0034082548	-3.2095852902	-1.5725105266	-0.098529
C	-0.2726678032	-4.6212815478	-1.1220438913	-0.271907
C	-1.2974760506	-3.8926009835	-1.9508914205	-0.247101
H	-0.0233818235	 1.6173337787	-0.8216388973	 0.313636
H	 0.0916655775	-2.9155420181	 1.4670527024	 0.124763
H	 0.055930107	-0.418660902	 2.0915797955	 0.269971
H	 0.7125532574	-3.0955748684	-2.3874632633	 0.093569
H	 0.2954277832	-5.4215068337	-1.5829187419	 0.109548
H	-0.501331445	-4.789455768	-0.0753999355	 0.108349
H	-2.1984789952	-3.5520442434	-1.4533716989	 0.113404
H	-1.4354981807	-4.1881426293	-2.9851037763	 0.109518
33.7537	136.1582	174.96	279.6622	347.2353	389.7674	411.7094	470.5568	493.4473	597.0117	667.4757	709.4366	737.7742	739.5971	791.9743	829.1159	900.7831	930.4132	995.4008	1035.8858	1057.2232	1079.622	1089.6701	1103.3882	1130.9467	1190.8025	1196.2719	1219.1989	1250.2038	1277.0318	1371.3687	1417.8577	1466.2908	1501.9724	1565.4371	1615.5718	1628.6726	3133.2561	3137.5219	3145.226	3212.1211	3228.2719	3282.945	3679.4501	3805.5812
OC1=NC(=CN1)C1CC1	Oc1nc(c[nH]1)C1CC1	
InChI=1S/C6H8N2O/c9-6-7-3-5(8-6)4-1-2-4/h3-4H,1-2H2,(H2,7,8,9)	InChI=1S/C6H8N2O/c9-6-7-3-5(8-6)4-1-2-4/h3-4H,1-2H2,(H2,7,8,9)
