25
gdb 60454	4.59513	0.54514	0.5096	1.6875	90.49	-0.2619	0.0848	0.3467	2241.3596	0.227131	-389.481978	-389.471034	-389.47009	-389.519141	39.603	
C	-0.0490960114	 1.6225539092	 0.0940207402	-0.380854
C	-0.0057919529	 0.0888308439	 0.0385725469	 0.04129
C	 0.7633765853	-0.4715118736	 1.2429245504	-0.387668
C	-1.4096639454	-0.5389268466	-0.0421704762	-0.167325
C	-2.201736498	-0.2026606199	-1.3104141286	-0.185139
C	-3.5539451552	-0.9264733307	-1.3792876104	-0.221156
C	-4.3310693926	-0.5801974732	-2.6251781006	 0.099371
C	-5.7922320071	-0.4435047426	-2.6369225783	-0.18146
O	-4.95071901	 0.710944112	-2.6537078902	-0.237277
H	 0.9614286051	 2.0388666524	 0.1629762521	 0.108513
H	-0.5236732299	 2.0552249649	-0.7912352876	 0.116657
H	-0.6083901199	 1.9648042525	 0.9734983516	 0.110147
H	 0.5396688744	-0.2007502835	-0.8719334427	 0.068663
H	 0.2591873327	-0.2154718458	 2.182720433	 0.110567
H	 0.8413546301	-1.5629536037	 1.195289528	 0.107149
H	 1.7786359502	-0.0639363396	 1.291306073	 0.10799
H	-1.3080835851	-1.6307848618	 0.0301524596	 0.085353
H	-1.9890694126	-0.2319010305	 0.8409897744	 0.089809
H	-2.3868550861	 0.8752326143	-1.373986159	 0.118225
H	-1.6038800828	-0.4666858708	-2.1941975939	 0.090126
H	-3.3981696765	-2.0138181995	-1.3493945942	 0.096869
H	-4.1591010661	-0.6670888328	-0.5020720869	 0.100821
H	-3.8452065076	-0.847904432	-3.566494417	 0.087315
H	-6.351039566	-0.6300269195	-3.5532932073	 0.111653
H	-6.3512509925	-0.600453463	-1.7148834463	 0.110363
46.9971	53.6896	99.1208	125.0018	135.7263	222.787	230.5224	255.4298	270.4732	371.6753	388.0301	429.2339	455.7959	510.3389	743.4114	780.252	827.6033	844.0663	879.7905	927.0839	944.3993	949.7314	966.3324	1004.024	1032.8369	1056.3977	1068.8316	1094.7379	1146.994	1159.3262	1169.0717	1190.8653	1194.1367	1228.9139	1264.8234	1295.9825	1306.1173	1331.5157	1336.1705	1368.8784	1375.8348	1398.3936	1402.2897	1423.7423	1449.4158	1471.7343	1479.4676	1489.397	1495.9034	1504.8846	1506.0542	1512.7582	1532.3845	2990.6899	2998.0466	3010.8681	3016.451	3022.9356	3028.4695	3032.4778	3054.8027	3076.7229	3079.4726	3086.8428	3088.0343	3092.5124	3097.7618	3109.1067	3164.4756
CC(C)CCCC1CO1	CC(C)CCC[C@H]1CO1	
InChI=1S/C8H16O/c1-7(2)4-3-5-8-6-9-8/h7-8H,3-6H2,1-2H3	InChI=1S/C8H16O/c1-7(2)4-3-5-8-6-9-8/h7-8H,3-6H2,1-2H3/t8-/m0/s1
