22
gdb 100353	2.33186	1.09578	0.93787	2.671	80.61	-0.2551	0.0283	0.2834	1379.8895	0.191112	-441.483243	-441.472121	-441.471177	-441.519536	39.919	
C	-0.1412426441	 1.5534765024	-0.0807801357	-0.402091
C	 0.0166057427	 0.0305239134	-0.069000697	-0.19253
C	 0.7138685039	-0.5493938832	 1.1762722152	 0.34678
C	 0.8415181159	-2.0738853004	 1.0789240713	-0.43524
C	 2.1035764676	 0.070817297	 1.3928735431	-0.113045
O	 2.8623266138	-0.1249582359	 0.2103091513	-0.422766
O	 0.0311021807	-0.1497458861	 2.3936246732	-0.236149
C	-1.2089270993	-0.6042278544	 2.6391759382	 0.120889
N	-1.8096635826	-0.2441228471	 3.692362555	-0.449813
H	 0.8286047178	 2.0536383992	-0.1554068857	 0.124892
H	-0.7373516505	 1.8656975211	-0.9433702374	 0.112186
H	-0.6411413655	 1.9119732484	 0.8234598764	 0.136883
H	-0.9678940567	-0.4436943106	-0.1634940033	 0.089117
H	 0.5960053386	-0.2896323912	-0.9403447934	 0.122955
H	 1.5927648385	-2.3168772592	 0.3236253659	 0.14429
H	 1.1656723243	-2.4880581926	 2.0382303552	 0.126397
H	-0.0972158632	-2.5549016968	 0.7906099498	 0.112788
H	 1.983078916	 1.1354154639	 1.630874818	 0.107094
H	 2.5691417839	-0.4148031938	 2.2623545438	 0.098673
H	 3.7456692407	 0.2232273375	 0.3582052566	 0.295322
H	-1.6090456621	-1.2774911027	 1.8733243284	 0.089177
H	-2.7302215104	-0.677792829	 3.725701371	 0.224188
63.6385	78.6043	112.5257	153.5323	166.34	223.9546	227.2722	252.7289	262.2503	303.7832	348.8522	376.0517	398.5171	469.2497	523.9611	631.8394	749.2009	791.5038	821.0789	905.202	927.8312	971.2619	1009.9787	1043.72	1059.8764	1073.11	1083.788	1120.55	1163.6282	1187.3395	1225.7789	1267.9818	1281.5104	1305.8204	1329.9687	1379.8947	1402.1472	1411.6432	1425.9518	1455.2698	1479.3829	1493.1796	1500.3584	1504.328	1508.1505	1530.9098	1734.2431	3000.6346	3033.8305	3042.5039	3044.1428	3046.3923	3060.4313	3085.6745	3110.8777	3116.6811	3122.2744	3132.1396	3511.4993	3843.7017
CCC(C)(CO)OC=N	CC[C@@](C)(CO)O[CH][NH]	
InChI=1S/C6H13NO2/c1-3-6(2,4-8)9-5-7/h5,7-8H,3-4H2,1-2H3	InChI=1S/C6H13NO2/c1-3-6(2,4-8)9-5-7/h5,7-8H,3-4H2,1-2H3/t6-/m0/s1
