14
gdb 12190	3.9545	1.49767	1.21547	5.7594	64.97	-0.2684	0.0044	0.2728	973.7609	0.107381	-378.75469	-378.746831	-378.745887	-378.787407	26.884	
C	-0.0382516112	 1.4444393647	-0.037050562	-0.347534
N	-0.0082452725	 0.0038413751	-0.0565827044	-0.072162
C	-1.0759919812	-0.9955062351	-0.0831241551	-0.181315
C	 0.0366587928	-2.0927070204	-0.0461825344	-0.30702
C	 0.1032825789	-2.9982488867	-1.1745550739	 0.285122
N	 0.1505800035	-3.7104604294	-2.083878266	-0.315439
C	 1.0379121291	-0.8752064215	-0.0530511991	 0.418348
O	 2.2278108059	-0.7423391246	-0.0389913777	-0.348028
H	 0.995306344	 1.7967898562	-0.018338475	 0.171057
H	-0.5335847472	 1.8438335018	-0.9294717253	 0.140585
H	-0.5585531442	 1.8207079422	 0.8514740579	 0.136715
H	-1.7300645654	-0.9804779753	 0.7947541582	 0.126645
H	-1.6779162318	-0.9865173778	-0.9966928466	 0.139133
H	 0.0774912795	-2.6482739492	 0.8933750232	 0.153893
84.2861	126.8388	141.1739	169.0169	246.8836	264.2619	415.8698	483.2769	567.925	620.7791	761.8604	808.0782	842.1593	962.2301	1013.462	1067.0359	1079.8155	1124.3164	1156.7201	1175.9932	1259.9321	1283.7459	1336.2625	1422.2965	1450.8465	1482.2104	1510.7996	1533.2973	1903.4944	2359.6345	3023.5975	3043.906	3079.106	3092.693	3103.0907	3137.8392
CN1CC(C#N)C1=O	CN1C[C@@H](C#N)C1=O	
InChI=1S/C5H6N2O/c1-7-3-4(2-6)5(7)8/h4H,3H2,1H3	InChI=1S/C5H6N2O/c1-7-3-4(2-6)5(7)8/h4H,3H2,1H3/t4-/m1/s1
