23
gdb 58810	3.53927	1.02063	0.91717	1.2066	85.89	-0.2438	0.074	0.3177	1395.9809	0.20462	-388.268633	-388.258822	-388.257878	-388.302956	37.723	
C	-0.1855699626	 1.5250599495	 0.0905419326	-0.408015
C	 0.0520324876	 0.0128790838	 0.0748345921	-0.003397
O	-1.1560489354	-0.7064873974	 0.3084505177	-0.425766
C	 0.7395776609	-0.4403324534	-1.1927197452	 0.401345
C	 0.0074135018	-0.8684238137	-2.4340137891	-0.345476
C	 0.9256407485	-1.8507676767	-1.7492737358	-0.123011
C	 2.4000531858	-1.5609112637	-2.0730923599	 0.040428
C	 2.9095091971	-1.7868234701	-3.4913697534	-0.403742
C	 2.1934801352	-0.0928295116	-1.557148949	-0.33115
H	 0.756350827	 2.0742766445	-0.0065051349	 0.122192
H	-0.8290361056	 1.8214402336	-0.7471850345	 0.109137
H	-0.6686761792	 1.825171931	 1.0246915477	 0.120336
H	 0.6944272075	-0.2497126035	 0.9264263638	 0.084163
H	-1.8261365841	-0.3442749305	-0.2811246041	 0.27841
H	-1.0462332528	-1.0926863526	-2.3025277073	 0.098821
H	 0.2524681849	-0.4407516213	-3.4035457443	 0.099718
H	 0.5383762559	-2.7826314466	-1.3538006693	 0.087293
H	 3.0434682668	-2.0996153674	-1.3699917109	 0.073216
H	 2.2917151891	-1.268238296	-4.231960667	 0.112721
H	 3.9364746232	-1.4210061935	-3.6027554765	 0.111094
H	 2.9058723695	-2.8529071707	-3.7445139674	 0.113793
H	 2.3203712783	 0.7060929468	-2.2964272451	 0.089728
H	 2.8160700906	 0.1385879095	-0.6883455002	 0.098163
68.1943	112.4831	155.1532	220.8091	239.7254	269.847	279.5652	299.8642	305.0514	398.7269	461.8152	482.1177	529.0821	659.5991	683.7743	803.5368	852.7404	854.8116	885.8544	912.4614	961.7909	975.3591	983.5314	1016.9211	1044.929	1069.6938	1074.3384	1092.3285	1109.3594	1118.3095	1134.4436	1191.9704	1206.0438	1245.4397	1276.4711	1291.4255	1307.7109	1356.2428	1372.4457	1394.0227	1400.2721	1414.8381	1417.6534	1476.9788	1491.6959	1492.9699	1495.307	1496.9496	1503.2115	3014.9985	3026.4266	3026.5976	3035.1442	3045.8109	3090.4672	3091.2437	3095.643	3099.2144	3107.0971	3116.1718	3177.5877	3197.836	3805.546
CC(O)C12CC1C(C)C2	C[C@@H](O)[C@]12C[C@H]1[C@@H](C)C2	
InChI=1S/C8H14O/c1-5-3-8(6(2)9)4-7(5)8/h5-7,9H,3-4H2,1-2H3	InChI=1S/C8H14O/c1-5-3-8(6(2)9)4-7(5)8/h5-7,9H,3-4H2,1-2H3/t5-,6+,7-,8-/m0/s1
