19
gdb 35803	3.01934	1.42479	1.12562	2.2604	80.56	-0.2426	0.0555	0.2981	1116.8189	0.160416	-385.852966	-385.845057	-385.844113	-385.885426	30.98	
C	-0.0627688619	-1.208729321	-0.1970593497	-0.44244
C	-0.0249704925	-0.0174745166	-0.0419861832	 0.317455
C	 0.0107223239	 1.4232602378	 0.1470004052	-0.184436
C	-0.4700598596	 1.9201801627	 1.5345459969	-0.2237
C	 0.0385706762	 3.3735615549	 1.5898155687	-0.23775
C	 1.406237185	 3.3402769171	 0.8879981569	-0.071305
C	 2.5401636434	 2.6322253572	 1.6567825865	-0.076889
O	 2.3951163008	 1.4326405407	 0.866506618	-0.286535
C	 1.412166834	 2.0544256879	 0.0149114893	 0.12293
H	-0.0857636525	-2.2614506779	-0.3322964058	 0.191245
H	-0.614539948	 1.8987415481	-0.6237421532	 0.100455
H	-1.5521002345	 1.8343722286	 1.655786394	 0.106271
H	 0.0010180398	 1.3103957496	 2.3110948967	 0.12601
H	-0.6424451669	 4.0297516193	 1.0350812043	 0.101623
H	 0.1002385168	 3.7626048359	 2.6110389649	 0.101283
H	 1.6778236419	 4.2836331366	 0.4136977017	 0.076765
H	 3.5346365417	 3.079419624	 1.5336791742	 0.100553
H	 2.3621419696	 2.4476408087	 2.7240565354	 0.100458
H	 1.7578950828	 2.1136782165	-1.0222766007	 0.078007
91.1253	134.121	171.4637	241.8613	336.0561	363.7251	476.2541	503.4582	582.9999	617.5006	631.6642	651.7674	790.0798	832.8286	853.6319	887.3852	899.6708	950.8151	957.417	970.3738	1025.647	1045.148	1079.5192	1087.0073	1104.5491	1160.2152	1172.1486	1194.771	1245.5083	1256.458	1288.3901	1301.2788	1316.7555	1330.7421	1353.6531	1364.7959	1372.0685	1487.2347	1497.3997	1525.933	2239.1627	2994.9799	3007.6043	3036.0399	3049.6258	3053.8128	3065.519	3084.1108	3107.0653	3117.088	3506.1118
C#CC1CCC2COC12	C#C[C@H]1CC[C@H]2CO[C@@H]12	
InChI=1S/C8H10O/c1-2-6-3-4-7-5-9-8(6)7/h1,6-8H,3-5H2	InChI=1S/C8H10O/c1-2-6-3-4-7-5-9-8(6)7/h1,6-8H,3-5H2/t6-,7-,8-/m0/s1
