18
gdb 112488	2.94329	1.19053	0.8921	2.2523	80.11	-0.2436	-0.0332	0.2104	1315.9216	0.146558	-439.097065	-439.087894	-439.08695	-439.131985	32.252	
C	 0.0085824617	 1.4265365984	 0.0960242015	-0.241502
O	 0.0727310226	 0.0098250534	 0.0251097481	-0.228933
C	 0.6866255226	-0.5809442009	 1.1212803822	 0.163873
O	-0.104171127	-0.4500231042	 2.313782515	-0.268419
C	-0.4785035944	-1.7023385507	 2.7610711441	 0.429679
C	 0.1194518605	-2.6974692082	 1.8608674872	-0.163315
C	 0.802726786	-2.0673240084	 0.9088101298	-0.125695
N	-1.1943176521	-1.9440985255	 3.7713615113	-0.327901
C	-1.7273827228	-0.8461759466	 4.5576728627	-0.335017
H	 1.0104660802	 1.8636888881	 0.2194813023	 0.110229
H	-0.4179341004	 1.7705127294	-0.847950823	 0.133834
H	-0.6271731581	 1.7562960938	 0.9253388628	 0.132886
H	 1.6497266785	-0.0848572947	 1.3290313717	 0.082574
H	-0.0236241106	-3.7580528661	 2.0048649955	 0.133196
H	 1.3482378267	-2.4887551061	 0.0766296784	 0.128607
H	-1.4956117728	 0.1499671589	 4.1651446705	 0.122198
H	-2.8158216574	-0.9557330828	 4.6265689944	 0.126919
H	-1.3404384133	-0.9194430879	 5.5811288555	 0.126789
53.0122	84.6595	114.9801	145.564	182.7651	223.0768	283.02	367.786	462.6658	510.1932	529.8131	685.6148	706.9702	792.6906	829.614	882.7027	963.2881	971.1658	1009.7296	1021.6718	1053.3201	1106.1963	1129.5573	1136.1102	1162.2114	1178.0535	1209.5096	1221.9497	1354.8599	1368.2167	1395.1916	1436.9562	1477.967	1485.0243	1493.1377	1494.0951	1510.4466	1668.7703	1783.7024	2963.8101	2997.2137	3016.0865	3072.0958	3072.7963	3089.4898	3133.4131	3237.7105	3262.6346
COC1OC(C=C1)=NC	CO[C@H]1OC(=NC)C=C1	
InChI=1S/C6H9NO2/c1-7-5-3-4-6(8-2)9-5/h3-4,6H,1-2H3	InChI=1S/C6H9NO2/c1-7-5-3-4-6(8-2)9-5/h3-4,6H,1-2H3/t6-/m0/s1
