17
gdb 50410	2.20264	1.71817	1.09815	3.1642	75.01	-0.2506	-0.0255	0.2251	1094.1259	0.135064	-421.823053	-421.814955	-421.814011	-421.856903	29.892	
O	 0.2085786253	-0.1580944026	 0.1897617104	-0.256803
C	 0.1065723789	 1.0376059001	 0.099311767	 0.155182
C	 1.2627743547	 2.009565997	 0.0185064082	-0.155108
C	 1.0620986898	 3.022242118	-1.1468973257	-0.310011
C	 0.9359966315	 4.3627199883	-0.4648786269	-0.071784
C	 1.0718672349	 4.2836662506	 0.8573800565	-0.137935
C	 1.3236943843	 2.8873034111	 1.2939440059	 0.389947
C	 1.0662447308	 2.3756030599	 2.6513306133	-0.249332
O	 2.397099828	 2.6514046419	 2.2129770841	-0.270947
H	-0.8953166794	 1.5300526624	 0.0778242016	 0.076317
H	 2.1875972839	 1.4365439706	-0.067131703	 0.115653
H	 1.9004468981	 2.999315251	-1.8522150296	 0.128843
H	 0.1654791357	 2.7872856384	-1.7365965535	 0.116818
H	 0.7577896158	 5.2755657019	-1.0219182561	 0.109414
H	 1.0392686947	 5.106012089	 1.5615504812	 0.11049
H	 0.6739855645	 3.0452111976	 3.4162824593	 0.115615
H	 0.8303213887	 1.3212099749	 2.7912645072	 0.133642
35.6189	64.4635	200.8614	256.7374	293.572	365.0306	397.9614	441.2625	536.0937	545.5536	749.386	767.1221	821.4883	847.941	892.5037	921.2176	939.7725	973.9638	983.4664	1000.1757	1072.637	1094.6592	1119.3553	1130.4224	1167.4857	1199.2098	1227.578	1239.2044	1285.629	1325.7062	1337.1759	1414.1573	1427.9348	1483.9856	1524.4499	1683.7847	1831.1523	2845.3316	3018.2234	3057.8005	3077.7622	3107.0156	3166.2659	3194.4749	3220.8496
O=CC1CC=CC11CO1	O=C[C@H]1CC=C[C@]21CO2	
InChI=1S/C7H8O2/c8-4-6-2-1-3-7(6)5-9-7/h1,3-4,6H,2,5H2	InChI=1S/C7H8O2/c8-4-6-2-1-3-7(6)5-9-7/h1,3-4,6H,2,5H2/t6-,7-/m1/s1
