15
gdb 30181	4.74463	1.35061	1.09183	3.5594	67.31	-0.1781	0.0287	0.2068	1058.9366	0.11393	-453.947244	-453.939852	-453.938908	-453.979164	27.964	
C	-0.5194001636	 1.4902588953	 0.0200676181	-0.402211
C	 0.234522387	 0.188377919	 0.0139246005	 0.203448
O	 1.1031972737	 0.1129140154	-1.1800560221	-0.306783
C	 2.1809326772	-0.5278878062	-0.6495130898	 0.33694
C	 2.1849653243	-0.5614191962	 0.6957257446	 0.29088
O	 1.0567070637	 0.0627852656	 1.190652885	-0.290488
N	 3.3419278192	-1.0317235098	 1.211569181	-0.342156
C	 4.0653562189	-1.2949140601	 0.1301971425	-0.024295
N	 3.4051746229	-0.9757663672	-1.0506163559	-0.38847
H	 0.182071258	 2.3266484927	 0.0558020822	 0.141724
H	-1.1332632573	 1.5696516097	-0.8806151066	 0.135278
H	-1.1706266656	 1.5312636778	 0.8968263303	 0.141324
H	-0.4243106275	-0.6924869373	-0.0370462205	 0.094387
H	 5.0402402257	-1.7544742091	 0.1212136364	 0.133545
H	 3.7349952934	-1.1448582296	-1.9854422359	 0.276877
82.5004	185.954	209.6412	267.291	322.5034	451.5369	467.4099	502.6917	630.0835	638.279	676.8066	700.6667	751.7978	765.537	815.663	874.7065	968.4589	1058.3428	1065.1987	1103.4297	1156.5052	1183.7152	1244.9942	1354.2444	1365.6622	1376.1214	1413.2102	1435.9566	1471.4223	1484.1461	1486.4449	1545.3751	1683.6357	2983.8536	3057.0623	3136.9481	3143.8024	3273.0839	3674.6192
CC1OC2=C(O1)N=CN2	C[C@H]1Oc2c(O1)nc[nH]2	
InChI=1S/C5H6N2O2/c1-3-8-4-5(9-3)7-2-6-4/h2-3H,1H3,(H,6,7)	InChI=1S/C5H6N2O2/c1-3-8-4-5(9-3)7-2-6-4/h2-3H,1H3,(H,6,7)
