17
gdb 43632	3.5071	1.17809	1.12468	4.2801	67.98	-0.2616	0.0137	0.2753	1133.515	0.136341	-458.970829	-458.962949	-458.962004	-459.004283	28.682	
O	 0.464741093	 0.5615002011	-0.8538144247	-0.314222
C	 0.1258231867	 1.4877902059	-0.1939757548	 0.459764
C	-1.1537209135	 2.2612964954	 0.1169284697	-0.431203
C	-0.2274884916	 3.1042989155	 1.0157356513	 0.098978
O	 0.9113156392	 2.2566432107	 0.6351926011	-0.254663
C	-0.0139084041	 4.5448720857	 0.6082227836	 0.123094
C	 1.3869879408	 5.1498696164	 0.8610944624	-0.294606
C	 1.4647644057	 5.2383321631	-0.6760077526	-0.058399
O	 0.1355463878	 4.6806707793	-0.8189164632	-0.294203
H	-1.5692480546	 2.78450746	-0.7445245992	 0.16374
H	-1.923280167	 1.6752083449	 0.6204042146	 0.14129
H	-0.4053759079	 3.0223290151	 2.0922209591	 0.098545
H	-0.8578216499	 5.1422591855	 0.9825511038	 0.083558
H	 1.3895903053	 6.1041816532	 1.388119386	 0.115237
H	 2.1004043416	 4.4678948946	 1.3234808292	 0.133465
H	 1.5219644567	 6.2494654692	-1.0939560321	 0.107627
H	 2.2205397018	 4.6043601044	-1.1508031742	 0.121998
62.5405	93.4955	104.4305	205.1784	264.0333	390.6985	515.2424	526.1393	612.5513	691.1077	778.1825	809.1866	844.292	904.2007	925.4552	935.973	981.7332	989.3875	1029.1836	1043.9359	1091.5609	1111.4167	1128.9598	1152.3539	1167.5409	1219.0668	1228.478	1259.3008	1267.6664	1293.6097	1350.9088	1381.9736	1385.8082	1446.0756	1483.9342	1527.9603	1946.6435	3001.5982	3034.2011	3072.8517	3081.2716	3093.127	3098.9741	3152.4587	3162.1475
O=C1CC(O1)C1CCO1	O=C1C[C@@H](O1)[C@H]1CCO1	
InChI=1S/C6H8O3/c7-6-3-5(9-6)4-1-2-8-4/h4-5H,1-3H2	InChI=1S/C6H8O3/c7-6-3-5(9-6)4-1-2-8-4/h4-5H,1-3H2/t4-,5-/m1/s1
