12
gdb 23675	3.73391	1.95935	1.28504	1.5287	59.28	-0.2375	-0.0238	0.2137	841.885	0.085529	-422.703019	-422.697096	-422.696152	-422.733075	23.039	
O	 0.101983962	 1.32468426	 0.0741365678	-0.414345
C	 0.0683449168	-0.021192811	 0.0529309235	 0.453748
N	 0.0797625149	-0.6113450391	-1.1403164992	-0.410579
C	 0.0469104216	-1.9288482347	-1.1604380889	 0.344666
F	 0.0593057405	-2.4848614686	-2.3672995626	-0.071446
C	 0.001451917	-2.7475786173	-0.0424123871	-0.287289
C	-0.0095580741	-2.1042323572	 1.1948418838	-0.045455
C	 0.0240118914	-0.7194616683	 1.2627156499	-0.221435
H	 0.1296291337	 1.6117790146	-0.8488712236	 0.303193
H	-0.0235223548	-3.8235803543	-0.1470433201	 0.115678
H	-0.0445340724	-2.6905443099	 2.1067987072	 0.118409
H	 0.0170182733	-0.1793354041	 2.1999748593	 0.114855
211.2002	246.5164	345.4064	462.4785	503.0547	531.1044	558.8934	564.9103	693.2375	756.2786	757.8212	811.8761	876.5397	992.1702	1001.4423	1019.1333	1087.3562	1159.6628	1219.3368	1292.2849	1352.1443	1381.0753	1495.5331	1511.0731	1632.4459	1660.8312	3191.1874	3224.3201	3229.1342	3774.3253
OC1=NC(F)=CC=C1	Oc1nc(F)ccc1	
InChI=1S/C5H4FNO/c6-4-2-1-3-5(8)7-4/h1-3H,(H,7,8)	InChI=1S/C5H4FNO/c6-4-2-1-3-5(8)7-4/h1-3H,(H,7,8)
