18
gdb 98164	2.17046	1.36307	1.0305	2.2857	73.97	-0.2572	0.0066	0.2638	1227.6514	0.146336	-435.307826	-435.297321	-435.296377	-435.343837	36.743	
C	 0.7128147697	 1.5927327713	-0.5092969199	-0.340697
N	 0.9347722371	 0.201084208	-0.862463983	-0.336668
C	 0.0575434094	-0.777376007	-0.5496840139	 0.432296
O	-0.987743294	-0.6075569427	 0.0540721008	-0.3916
C	 0.4392372638	-2.2441983677	-0.9531594651	-0.034341
C	 0.9767905048	-2.9393202634	 0.318048577	-0.389703
N	-0.7360470109	-2.9810127242	-1.4288867484	-0.520845
C	 1.4719775099	-2.2584223469	-1.9991725704	 0.298638
N	 2.3014672402	-2.205787041	-2.803084266	-0.351635
H	 0.6318836006	 2.2173715639	-1.4049797787	 0.137103
H	-0.220989875	 1.6465737886	 0.0505522313	 0.174013
H	 1.5293540789	 1.9733754	 0.112698773	 0.135379
H	 1.7475409132	-0.0373521119	-1.4097111793	 0.270791
H	 0.2057984473	-2.8820476542	 1.0901756156	 0.146523
H	 1.1911404407	-3.9863228459	 0.098143132	 0.147557
H	 1.8809160171	-2.4482541772	 0.6864184526	 0.130465
H	-1.4893581001	-2.7454857527	-0.7833298987	 0.252174
H	-1.0254443324	-2.6136178271	-2.3324155788	 0.240549
43.8251	66.021	130.7251	145.783	192.924	232.8125	253.576	273.4214	283.8856	344.0532	359.1477	433.3893	510.8577	536.4942	589.222	628.1881	764.7877	797.5755	887.4606	933.0589	975.5484	1042.3619	1064.6805	1150.0772	1153.1262	1179.9463	1203.0481	1264.5357	1353.015	1399.3234	1441.1681	1484.9653	1490.2662	1495.3183	1498.6632	1573.2261	1664.887	1777.465	2348.9902	3037.4237	3055.1695	3093.713	3136.0442	3150.0926	3160.1462	3465.7291	3544.9506	3622.9292
CNC(=O)C(C)(N)C#N	CNC(=O)[C@@](C)(N)C#N	
InChI=1S/C5H9N3O/c1-5(7,3-6)4(9)8-2/h7H2,1-2H3,(H,8,9)	InChI=1S/C5H9N3O/c1-5(7,3-6)4(9)8-2/h7H2,1-2H3,(H,8,9)/t5-/m0/s1
