14
gdb 49928	4.12696	1.0652	0.95034	4.5538	68.72	-0.2601	-0.0512	0.2089	1186.6213	0.099754	-436.692954	-436.68495	-436.684006	-436.726698	28.075	
O	 0.2379107589	-0.1494774147	-0.2403046065	-0.220282
C	-0.0051144214	 1.0149120031	-0.0951896531	 0.150195
C	 1.0590581411	 2.0998383979	 0.1122898389	-0.025315
O	 2.324398856	 1.5313104535	 0.3993574391	-0.245835
C	 3.2423998086	 1.8079784325	-0.6521817712	-0.055148
C	 2.4895060958	 2.7084996749	-1.607691976	-0.08339
C	 1.2555038869	 2.8917784184	-1.1584441111	-0.109645
C	 4.4569083432	 2.4531505613	-0.1119698364	 0.270442
N	 5.4164706706	 2.960425238	 0.2826386524	-0.312085
H	-1.0456501197	 1.4144902484	-0.1174170682	 0.081621
H	 0.7333213652	 2.7333693116	 0.953494005	 0.121121
H	 3.5520612439	 0.8673771381	-1.1314411973	 0.150537
H	 2.9408370641	 3.1212992168	-2.4990220096	 0.142983
H	 0.4742311568	 3.4807397202	-1.619645866	 0.134802
42.9026	90.1026	147.1449	185.5546	267.725	315.9023	427.6478	517.1677	549.3261	705.0691	722.7558	773.4166	797.7434	855.1996	916.9265	959.1277	964.926	993.4476	1029.1967	1047.7824	1128.9861	1148.5563	1252.4572	1287.3858	1325.6854	1338.0931	1362.6796	1412.1914	1686.3121	1852.703	2362.0458	2864.0051	2980.1835	3001.1904	3225.3792	3250.1215
O=CC1OC(C=C1)C#N	O=C[C@H]1O[C@@H](C=C1)C#N	
InChI=1S/C6H5NO2/c7-3-5-1-2-6(4-8)9-5/h1-2,4-6H	InChI=1S/C6H5NO2/c7-3-5-1-2-6(4-8)9-5/h1-2,4-6H/t5-,6-/m0/s1
