17
gdb 78077	2.12913	1.81615	1.61873	3.4566	68.26	-0.2568	-0.0409	0.2159	940.5164	0.135814	-458.937667	-458.929768	-458.928823	-458.969891	30.48	
O	-0.0119095707	 1.4802976702	 0.1365209958	-0.447976
C	-0.0647389029	 0.0896708941	 0.0064883306	 0.094867
C	-1.4001243269	-0.6640566608	 0.0072787487	-0.146877
C	-2.2496340529	-0.3855839776	-1.2054848693	-0.121863
C	-2.4496186281	 0.914969075	-1.9082947795	 0.160955
O	-2.1186548008	 2.0117381991	-1.5114277366	-0.282895
C	-1.0510916331	-1.2963365246	-1.3551072285	-0.080654
C	 0.256046653	-0.5035457261	-1.4194777543	 0.073281
O	 0.3652894159	 0.4480100697	-2.4446006134	-0.439149
H	-0.820804404	 1.8517689209	-0.2629129865	 0.306294
H	 0.6108872533	-0.3335128732	 0.7545008059	 0.096329
H	-1.8412395505	-1.140649654	 0.8752005629	 0.099222
H	-3.1723410515	-0.9662071024	-1.2303218866	 0.115023
H	-3.0114707286	 0.8242012547	-2.8604828874	 0.103255
H	-1.1816666006	-2.3229958747	-1.6740392001	 0.099679
H	 1.1293187969	-1.1676925106	-1.411529823	 0.079052
H	 0.5325069415	 1.2914671701	-1.9971324289	 0.291458
117.5219	140.8058	224.8255	247.2559	259.3647	309.9012	404.4429	499.5005	572.4173	597.2936	702.3612	717.9663	749.3112	810.6131	824.6221	853.7212	887.6477	941.6132	996.9126	1004.6323	1029.7333	1059.4324	1084.9357	1139.8575	1152.648	1172.8097	1191.1446	1271.0557	1295.2968	1331.1658	1348.8524	1368.2401	1389.393	1424.1645	1430.9471	1483.6079	1787.9029	2927.2608	3021.9139	3078.8335	3112.677	3177.2791	3193.6906	3566.5121	3713.2473
OC1C2C(C=O)C2C1O	O[C@H]1[C@H]2[C@@H](C=O)[C@H]2[C@H]1O	
InChI=1S/C6H8O3/c7-1-2-3-4(2)6(9)5(3)8/h1-6,8-9H	InChI=1S/C6H8O3/c7-1-2-3-4(2)6(9)5(3)8/h1-6,8-9H/t2-,3+,4-,5+,6-
