17
gdb 32340	4.53105	0.98558	0.86195	4.8929	79.7	-0.2311	-0.0563	0.1747	1340.4964	0.136456	-421.893993	-421.885826	-421.884882	-421.927239	30.412	
C	 0.060775304	 1.5640425872	 0.134290779	-0.36993
C	 0.0056499053	 0.0448041114	-0.0965585436	-0.293665
C	-1.3927645075	-0.5172371574	-0.0387217444	 0.173206
C	-2.0271596669	-0.9818899373	-1.1378470014	 0.017956
O	-3.2759066801	-1.4757458153	-1.1379052046	-0.219504
C	-4.0575012223	-1.5568836755	 0.0306308816	 0.425433
O	-5.1655824891	-2.0094502386	-0.0701215855	-0.343962
C	-3.3963983644	-1.0728674307	 1.2262246202	-0.256582
C	-2.1357804788	-0.5800467499	 1.1890997122	-0.099898
H	 1.0936812713	 1.9238278398	 0.1069416107	 0.120578
H	-0.508190955	 2.0962435234	-0.6341460579	 0.12536
H	-0.3618172408	 1.8356296262	 1.1071571462	 0.121665
H	 0.448346119	-0.1930778838	-1.0700707147	 0.108995
H	 0.6294931565	-0.4576669993	 0.6538715337	 0.112901
H	-1.588553771	-1.0040428812	-2.1299413634	 0.134573
H	-3.9726896798	-1.1349521185	 2.1405797927	 0.126991
H	-1.6666646004	-0.2281790705	 2.1043289492	 0.115882
65.8628	94.1707	187.044	209.2602	321.0685	356.6094	396.2909	451.4671	502.6468	557.7344	628.5836	732.2912	759.6322	773.2248	790.7222	855.3103	911.4052	950.553	970.0698	1010.6354	1074.5241	1091.2357	1106.5872	1166.9324	1230.2232	1273.0887	1289.0728	1354.3875	1382.4463	1411.2245	1456.258	1484.292	1497.1116	1506.139	1583.4404	1692.7884	1843.2984	3024.025	3037.6983	3065.862	3108.5472	3114.0534	3165.3994	3193.5268	3220.4368
CCC1=COC(=O)C=C1	CCc1coc(=O)cc1	
InChI=1S/C7H8O2/c1-2-6-3-4-7(8)9-5-6/h3-5H,2H2,1H3	InChI=1S/C7H8O2/c1-2-6-3-4-7(8)9-5-6/h3-5H,2H2,1H3
