20
gdb 77167	3.33278	1.07669	0.86631	3.9075	81.45	-0.2379	0.0415	0.2794	1355.4231	0.170766	-403.162458	-403.153264	-403.15232	-403.197049	33.443	
C	-0.2642976237	 1.4135141417	-0.038233726	-0.348208
N	-0.0656267347	-0.0098901896	 0.0404714848	-0.066042
C	-0.998901038	-1.1391409871	 0.1909140712	 0.02448
C	 0.242212639	-2.0759561532	 0.0573134444	-0.411389
C	 1.0628378891	-0.777758947	-0.1103466436	 0.407966
O	 2.2147139953	-0.4856943366	-0.3058074218	-0.377138
C	-1.7687271194	-1.1787493387	 1.4832128633	 0.017234
C	-3.1298415432	-0.5294069779	 1.5808782689	-0.272907
C	-3.0092402206	-2.0307925896	 1.5879048642	-0.269134
H	 0.7163908043	 1.8753671586	-0.1765791857	 0.160682
H	-0.9051157923	 1.6860310721	-0.8867917684	 0.123473
H	-0.7170632076	 1.8092201744	 0.8779025269	 0.131156
H	-1.6943312495	-1.2189794427	-0.6570789356	 0.071559
H	 0.4831111955	-2.6520891173	 0.953085843	 0.127936
H	 0.2506354813	-2.7327078427	-0.8143022159	 0.128368
H	-1.1424006473	-1.1221564416	 2.3700746807	 0.088255
H	-3.3929488063	-0.0270850468	 2.5048476679	 0.117418
H	-3.5336006266	-0.0596557077	 0.6895451297	 0.113313
H	-3.3294591138	-2.5688315735	 0.7013807381	 0.115189
H	-3.1883820817	-2.560898985	 2.5161320239	 0.117787
75.4612	80.7757	112.2043	145.9121	205.398	237.6917	294.3508	369.8555	390.1654	541.4621	568.6068	715.8514	755.5472	795.9703	815.4279	838.7799	916.8806	933.5206	969.1118	996.2732	1030.852	1060.0709	1070.5787	1082.777	1094.8559	1138.0675	1149.3023	1190.5653	1198.7185	1217.2303	1224.7083	1241.826	1291.3075	1325.9704	1409.9313	1433.4689	1445.9679	1468.5043	1469.7792	1482.0728	1505.9796	1518.4566	1876.5155	2997.7115	3013.6665	3067.98	3083.3464	3127.9891	3130.2067	3134.5631	3139.1488	3141.7187	3209.7166	3224.7077
CN1C(CC1=O)C1CC1	CN1[C@@H](CC1=O)C1CC1	
InChI=1S/C7H11NO/c1-8-6(4-7(8)9)5-2-3-5/h5-6H,2-4H2,1H3	InChI=1S/C7H11NO/c1-8-6(4-7(8)9)5-2-3-5/h5-6H,2-4H2,1H3/t6-/m0/s1
