17
gdb 76355	1.97613	1.4105	1.19369	4.3734	81.54	-0.237	0.0097	0.2467	1154.4767	0.134048	-380.832987	-380.823204	-380.82226	-380.867201	35.778	
C	-0.1748405522	 1.4823087819	-0.1629115252	-0.424228
C	 0.0257089882	-0.0122263854	-0.0649840203	-0.062398
C	 1.3399794491	-0.6710547845	-0.2622264856	-0.010663
N	 2.5141436302	 0.0546316649	-0.5873600823	-0.501595
C	 0.6913893475	-0.6419209484	 1.1929785615	-0.062284
C	 1.3096007554	 0.2130037274	 2.1597624336	 0.253876
C	 1.8683766067	 0.9424060325	 2.9369135481	-0.4295
C	 0.1324998781	-1.8723530598	 1.6796698145	 0.224868
N	-0.3166318434	-2.880943524	 2.0285749001	-0.349278
H	 0.619493881	 2.0428340622	 0.3342849763	 0.131633
H	-0.2063941661	 1.7879188249	-1.2133597121	 0.137582
H	-1.1198664482	 1.7708764945	 0.3059742774	 0.138547
H	-0.8237577342	-0.5955353027	-0.4078173048	 0.123928
H	 1.3215038798	-1.6629545589	-0.7018987468	 0.131388
H	 2.5630525431	 0.9431653095	-0.1018020497	 0.245226
H	 3.3454768704	-0.4711034261	-0.337833011	 0.248424
H	 2.3362311144	 1.5767342619	 3.6489311862	 0.204474
115.2204	127.0803	148.1651	159.6963	167.8763	221.5551	230.3693	333.3051	364.1826	466.9591	486.4506	572.8011	576.8762	589.2472	617.2712	623.3413	681.5227	717.9215	816.008	865.4136	962.3126	1010.9905	1040.6612	1096.5921	1128.76	1157.5128	1228.2144	1293.0608	1299.8228	1383.4616	1422.8725	1464.5927	1495.657	1503.4513	1667.2066	2230.5181	2341.354	3048.1791	3113.8407	3128.1415	3157.1707	3172.9058	3499.5628	3515.3765	3596.8055
CC1C(N)C1(C#C)C#N	C[C@H]1[C@@H](N)[C@]1(C#C)C#N	
InChI=1S/C7H8N2/c1-3-7(4-8)5(2)6(7)9/h1,5-6H,9H2,2H3	InChI=1S/C7H8N2/c1-3-7(4-8)5(2)6(7)9/h1,5-6H,9H2,2H3/t5-,6+,7+/m0/s1
