17
gdb 110161	2.63613	1.1985	0.90265	2.6718	77.66	-0.2365	0.0064	0.2429	1294.2172	0.13467	-417.949952	-417.940837	-417.939892	-417.984196	33.104	
C	 0.1600063795	 1.3818253356	-0.1209278228	-0.326742
N	-0.15435423	 0.0097627526	 0.2851719501	-0.298319
C	 0.7532107172	-0.5040917688	 1.2883263134	-0.134856
C	 0.6075666429	-2.0266305455	 1.5808671162	-0.080223
O	 1.9879108262	-2.2395854531	 1.1096490539	-0.256417
C	 2.1262361294	-0.909704145	 0.7762686196	 0.471151
N	 3.0753458609	-0.2998434172	 0.2318300258	-0.545955
C	 0.3985316883	-2.4515822294	 2.9468367869	 0.322685
C	 0.2039847568	-2.7897595531	 4.0832303169	-0.429012
H	 1.1572196057	 1.4019356742	-0.5661170036	 0.167042
H	-0.5646500495	 1.7047234957	-0.8730669629	 0.120045
H	 0.1458101919	 2.1054452916	 0.712172621	 0.098168
H	-1.0988927886	-0.0226445295	 0.6576875038	 0.224612
H	 0.8186571525	 0.0974074241	 2.2097637057	 0.098935
H	-0.0874324029	-2.5114012042	 0.8894793631	 0.127156
H	 3.8462188708	-0.9304052252	 0.0037058393	 0.231612
H	 0.036205899	-3.0963227229	 5.0865841837	 0.210118
71.221	96.874	151.8157	165.9631	203.7739	249.5071	313.3085	372.8156	416.8888	490.0978	562.4594	634.2903	664.6271	685.2903	723.6017	803.9711	866.9094	891.3323	929.7914	1005.8908	1021.4447	1026.2322	1061.6403	1141.8214	1161.2166	1182.7339	1216.5871	1263.8178	1284.3842	1349.5342	1374.7941	1458.0889	1479.7979	1496.5983	1521.0879	1829.408	2242.2399	2959.9862	2968.9247	3075.5574	3084.7141	3135.2961	3472.8847	3500.5568	3503.3414
CNC1C(OC1=N)C#C	CN[C@H]1[C@@H](O[C]1[NH])C#C	
InChI=1S/C6H8N2O/c1-3-4-5(8-2)6(7)9-4/h1,4-5,7-8H,2H3	InChI=1S/C6H8N2O/c1-3-4-5(8-2)6(7)9-4/h1,4-5,7-8H,2H3/t4-,5-/m0/s1
