16
gdb 77195	3.56216	1.04491	0.89869	1.6237	74.27	-0.2806	-0.0198	0.2608	1259.1386	0.124765	-396.931792	-396.923088	-396.922144	-396.965609	31.145	
C	 0.2856552748	 1.7269064386	-0.0118632679	-0.416995
C	 0.0779608649	 0.2242656342	-0.1096937166	-0.017999
C	 0.9890981719	-0.4823626553	-1.1724037107	-0.127423
N	 1.8904859103	-0.9050443574	-0.0754966985	-0.300527
C	 0.8459787566	-0.652383939	 0.9404161387	-0.138153
C	 1.3175651897	-0.0106048875	 2.1667085518	 0.305957
N	 1.666916536	 0.5022603795	 3.1414598593	-0.318906
C	 0.3275890919	-1.5777866084	-1.8853435288	 0.27045
N	-0.1807021064	-2.4632182223	-2.4284652415	-0.3159
H	 1.3485139571	 1.9774569452	 0.0514567044	 0.149375
H	-0.1366513116	 2.2254625896	-0.8896545479	 0.130978
H	-0.2086101959	 2.1280708174	 0.8773998346	 0.145942
H	-0.9794954637	-0.0271355661	-0.1893169838	 0.118241
H	 1.4690555826	 0.1802852113	-1.8998123583	 0.133985
H	 2.2499366394	-1.8521444286	-0.1229580665	 0.248306
H	 0.2601726624	-1.5380326712	 1.2187786518	 0.132668
60.704	126.2138	153.2377	178.8234	236.4665	257.458	311.9919	371.5225	476.228	525.1592	573.7265	601.4751	686.4815	803.0238	831.827	876.7254	970.4637	998.8073	1042.2154	1045.7227	1090.1175	1111.3499	1118.8075	1221.1838	1244.4989	1269.8664	1321.164	1347.8598	1372.9438	1405.5116	1415.769	1492.0073	1495.573	2347.9014	2359.3507	3022.0228	3043.7025	3057.4484	3108.8584	3117.4265	3128.8231	3545.075
CC1C(NC1C#N)C#N	C[C@H]1[C@@H](N[C@H]1C#N)C#N	
InChI=1S/C6H7N3/c1-4-5(2-7)9-6(4)3-8/h4-6,9H,1H3	InChI=1S/C6H7N3/c1-4-5(2-7)9-6(4)3-8/h4-6,9H,1H3/t5-,6-/m0/s1
