22
gdb 9762	2.88708	1.65067	1.45591	1.3366	76.94	-0.2631	0.0701	0.3332	1012.1329	0.200987	-350.221776	-350.212779	-350.211835	-350.255296	33.851	
C	-0.4095769337	 1.6617541243	 0.1243255366	-0.444974
C	 0.0615652937	 0.2068801414	 0.0197003632	 0.302865
C	-1.1596015624	-0.718077452	-0.1062575201	-0.096679
O	-1.8517314276	-0.4104395674	-1.309865175	-0.425041
C	 1.0397539904	-0.0215796671	-1.1562164298	-0.218435
C	 1.8091211272	-1.3128382042	-0.8089676968	-0.213201
C	 1.8066303333	-1.3998766252	 0.7455855826	-0.205726
C	 0.9097176965	-0.2351773318	 1.2363485507	-0.240053
H	 0.4447988183	 2.3443710418	 0.1827919389	 0.103003
H	-1.0145889488	 1.9393623577	-0.7425962253	 0.129973
H	-1.0215841482	 1.813938403	 1.0213068876	 0.101904
H	-0.841394662	-1.7719236898	-0.0996980595	 0.082294
H	-1.8105179164	-0.5679892718	 0.7706094861	 0.080757
H	-2.6093444476	-0.9975583942	-1.3807860001	 0.286398
H	 0.5197123349	-0.0759107815	-2.115248377	 0.10981
H	 1.7322915339	 0.8272780356	-1.2058503142	 0.084803
H	 1.3083471283	-2.1849544795	-1.2412425744	 0.098344
H	 2.8218264847	-1.3061270371	-1.2215187175	 0.093139
H	 1.4179638954	-2.366538965	 1.0797176821	 0.095421
H	 2.8158489492	-1.3176692243	 1.1587586217	 0.095904
H	 1.5289807668	 0.6106877996	 1.5555754577	 0.092975
H	 0.2918437439	-0.5113570725	 2.0983033626	 0.08652
56.2663	106.079	180.3745	218.8427	235.0108	246.9101	304.0175	352.1073	383.2464	481.1165	578.4589	658.2365	720.6104	795.7969	821.1764	887.7353	907.9616	914.7774	957.0516	969.9863	1003.3044	1046.9021	1048.5447	1074.0849	1091.4769	1156.4075	1184.1681	1215.8638	1223.5968	1260.7125	1270.6356	1284.1895	1298.4513	1313.4791	1336.4662	1344.6403	1367.83	1407.2481	1456.2534	1484.894	1488.9017	1494.2664	1496.2978	1508.2803	1518.4494	1524.1183	2963.2508	2997.9813	3025.8876	3029.8527	3035.4116	3044.2856	3056.8188	3063.9605	3079.2303	3088.1683	3098.3126	3109.2274	3118.9165	3836.6563
CC1(CO)CCCC1	CC1(CO)CCCC1	
InChI=1S/C7H14O/c1-7(6-8)4-2-3-5-7/h8H,2-6H2,1H3	InChI=1S/C7H14O/c1-7(6-8)4-2-3-5-7/h8H,2-6H2,1H3
