15
gdb 29877	3.28625	1.43801	1.00661	6.7082	71.33	-0.2294	-0.0196	0.2098	1106.7898	0.114278	-454.015579	-454.007696	-454.006752	-454.048474	28.927	
C	 0.0113179442	 1.4975029589	-0.0127801678	-0.339313
N	 0.0069446061	 0.0371488849	-0.0129275768	-0.129988
C	-1.1605615515	-0.6962646429	-0.1297472303	 0.022256
C	-1.1423648162	-2.0392936547	-0.1276372904	-0.25604
C	 0.1276051271	-2.7706198501	-0.0002377016	 0.374944
O	 0.199641852	-3.9830655103	 0.0072341364	-0.369255
N	 1.276632189	-1.9622097498	 0.1147214242	-0.434681
C	 1.1645939572	-0.6827169434	 0.1032243046	 0.508119
O	 2.2532586848	 0.0997080343	 0.2121473689	-0.407199
H	 0.6049480749	 1.8839487302	-0.8447516017	 0.15814
H	-1.0174957923	 1.844204306	-0.1160512179	 0.141811
H	 0.4278906221	 1.8843128086	 0.9203665587	 0.158136
H	-2.0641779181	-0.1056973825	-0.2204123376	 0.136099
H	-2.0572716072	-2.6091694967	-0.2191871488	 0.119956
H	 2.9977696979	-0.5150521825	 0.2868776002	 0.317014
75.2531	91.2952	210.9091	215.2116	329.3872	379.4362	426.0983	491.0197	548.007	567.0745	601.4031	722.1236	756.6564	771.4408	789.5514	845.1758	960.6089	961.0509	1035.8329	1153.228	1154.9465	1203.85	1232.0229	1274.377	1340.5987	1421.3679	1466.3438	1478.8614	1499.1244	1530.5341	1602.8307	1719.484	1781.328	3054.9403	3122.8205	3149.9356	3203.2232	3230.9263	3763.8761
CN1C=CC(=O)N=C1O	Cn1ccc(=O)nc1O	
InChI=1S/C5H6N2O2/c1-7-3-2-4(8)6-5(7)9/h2-3H,1H3,(H,6,8,9)	InChI=1S/C5H6N2O2/c1-7-3-2-4(8)6-5(7)9/h2-3H,1H3,(H,6,8,9)
