18
gdb 45744	3.06985	1.34374	1.01681	1.1421	80.07	-0.2141	-0.0049	0.2092	1181.5067	0.149509	-398.133716	-398.125704	-398.12476	-398.167408	30.133	
N	-0.1695080824	 1.2638302567	-0.1836402402	-0.551414
C	-0.0115985783	 0.0068545259	-0.0661657139	 0.341675
C	 1.2124176589	-0.9095642388	-0.0877837712	-0.271647
N	 0.714618531	-2.2778397141	 0.1048135028	-0.27112
C	-0.5537233141	-2.1589467092	 0.214920404	 0.064105
N	-1.074091982	-0.8762567355	 0.1299525684	-0.082592
C	-2.4425823484	-0.4562121378	 0.2177611243	 0.069397
C	-3.5598522221	-1.2871419867	-0.3523432684	-0.288118
C	-3.4152647499	-1.1295969897	 1.1473596557	-0.288165
H	 0.7257544725	 1.7295363936	-0.3194312929	 0.221282
H	 1.7515904244	-0.8286364362	-1.0387986095	 0.140915
H	 1.920296356	-0.6444289412	 0.7061316282	 0.140917
H	-1.2241167762	-2.9978112579	 0.3683558706	 0.135274
H	-2.4931956317	 0.6198091653	 0.1095832974	 0.143522
H	-4.3692308788	-0.773115644	-0.8584469397	 0.127047
H	-3.3078590946	-2.2503060542	-0.7833542931	 0.120937
H	-3.0673354961	-1.9881839482	 1.7119193856	 0.120938
H	-4.1244513383	-0.506397758	 1.6804023921	 0.127047
28.8047	117.5825	170.9393	179.3663	318.5382	417.1738	456.1854	502.6818	593.6576	595.625	711.7055	776.6313	812.1498	815.7912	885.8044	901.9497	928.8243	943.7753	974.787	1004.4302	1009.6141	1058.2377	1072.7554	1095.2213	1144.3976	1153.0787	1191.5625	1196.7574	1228.7278	1284.1436	1310.8515	1319.5754	1427.4839	1432.6125	1456.0642	1465.6194	1506.9255	1676.1898	1732.8552	3039.9545	3071.8572	3134.1254	3137.2611	3197.0299	3202.4931	3213.8396	3229.2917	3502.1135
N=C1CN=CN1C1CC1	[NH][C]1CN=CN1C1CC1	
InChI=1S/C6H9N3/c7-6-3-8-4-9(6)5-1-2-5/h4-5,7H,1-3H2	InChI=1S/C6H9N3/c7-6-3-8-4-9(6)5-1-2-5/h4-5,7H,1-3H2
