19
gdb 91659	2.48889	1.7669	1.37903	0.2477	74.43	-0.2543	0.0783	0.3326	1010.9529	0.159886	-422.980321	-422.972697	-422.971753	-423.012087	30.455	
C	-0.0822179354	 1.5555749803	 0.0452117002	-0.426898
C	 0.0785092882	 0.0363744588	 0.0252111935	 0.033617
C	 1.0432958126	-0.5363097503	-1.0750057282	-0.246494
C	 1.9862109284	-1.3278725704	-0.146313115	-0.02896
O	 1.0565756768	-1.9442320008	 0.8043645519	-0.302591
C	 0.8052005833	-0.5717902055	 1.2500288638	-0.044571
C	 2.2877645899	-0.31671521	 0.9602482695	 0.501306
C	 3.4392204146	-0.1209959509	 1.8213656784	-0.294828
O	 2.9981098593	 0.8928087034	 0.8822532488	-0.280688
H	 0.8833666499	 2.057487634	 0.1503690486	 0.145661
H	-0.5506223801	 1.9079528003	-0.8794262363	 0.116697
H	-0.719627305	 1.8725985174	 0.8782963751	 0.111167
H	-0.9029453186	-0.4401517215	-0.0554350939	 0.080306
H	 0.5369862717	-1.1869070782	-1.7905266023	 0.106512
H	 1.5739089873	 0.2496992112	-1.6207577623	 0.111196
H	 2.7217882393	-2.0116146125	-0.568029461	 0.086356
H	 0.3506022848	-0.4929377666	 2.2373276588	 0.083488
H	 3.3007041284	 0.1330975639	 2.8707038188	 0.124631
H	 4.3907627945	-0.5892176325	 1.5762778217	 0.124096
145.5635	171.186	234.2086	245.4123	312.917	359.9132	420.516	473.7825	573.0497	621.8892	707.9423	824.2226	832.9346	848.2171	881.0509	899.2519	924.6942	933.5517	944.8302	1000.9947	1027.0776	1057.5758	1082.5334	1111.2834	1117.7757	1161.7529	1167.1207	1185.4756	1203.5865	1229.2456	1244.2968	1284.1239	1304.4114	1322.7001	1361.7555	1415.5717	1471.1599	1485.1441	1501.0988	1506.2261	1560.2061	3034.0907	3058.6842	3063.8429	3090.9535	3094.6088	3118.2943	3123.0987	3127.8846	3135.0546	3178.8697
CC1CC2OC1C21CO1	C[C@H]1C[C@@H]2O[C@H]1[C@]12CO1	
InChI=1S/C7H10O2/c1-4-2-5-7(3-8-7)6(4)9-5/h4-6H,2-3H2,1H3	InChI=1S/C7H10O2/c1-4-2-5-7(3-8-7)6(4)9-5/h4-6H,2-3H2,1H3/t4-,5-,6+,7+/m0/s1
