20
gdb 117572	2.85486	0.96544	0.79404	1.0654	81.49	-0.2441	0.0458	0.2899	1495.9763	0.16889	-403.068833	-403.058727	-403.057783	-403.104533	36.004	
C	 0.1312226259	 1.4062445006	 0.0295473231	-0.22996
O	 0.0199653513	 0.0025752769	 0.0252734505	-0.230551
C	 0.7022412253	-0.6044836806	 1.0936299162	-0.048402
C	 0.5704209942	-2.1321373079	 0.9541655382	-0.212542
C	 1.2385921669	-2.6081004383	-0.2545008031	 0.325389
C	 1.8285548701	-3.0069677989	-1.2235512969	-0.464377
C	 1.0883351759	-2.8205738527	 2.2193175058	 0.015155
C	 1.5444213467	-4.2283922467	 2.2232333494	-0.257056
N	 2.5133679313	-3.1286112299	 2.4005946872	-0.320586
H	 1.1794459298	 1.73237621	-0.0568795233	 0.108078
H	-0.427776332	 1.7798425963	-0.8314828257	 0.130199
H	-0.290805634	 1.8475281843	 0.9465463874	 0.104498
H	 1.7662944002	-0.3182129654	 1.0997757649	 0.099965
H	 0.2699330694	-0.2940984318	 2.0600810499	 0.088538
H	-0.5042998223	-2.344898549	 0.8676360184	 0.121957
H	 2.323575459	-3.3491325152	-2.0987959374	 0.201181
H	 0.613783775	-2.4375617259	 3.1211973127	 0.094403
H	 1.3824647783	-4.8450714944	 3.102562144	 0.116195
H	 1.5446692649	-4.7614533499	 1.2770900395	 0.124136
H	 2.996970894	-2.9829525815	 1.5151448792	 0.233779
68.0294	79.8278	96.5248	136.924	166.3575	205.5568	235.1921	299.4122	335.3038	388.4632	428.8116	583.7414	630.0752	635.1157	648.7011	787.3901	843.3456	866.6192	943.1504	981.1182	990.4263	1022.1887	1080.0762	1101.7393	1130.7816	1152.5513	1166.3132	1183.6516	1195.0149	1228.0886	1248.9255	1274.515	1282.9354	1316.9846	1353.4534	1407.0619	1417.6044	1479.9574	1485.3684	1501.8717	1507.5968	1525.5238	2232.2332	2955.6142	2973.2807	2993.3718	3016.5008	3019.6794	3114.3542	3117.6822	3120.5285	3203.7129	3472.9964	3501.8161
COCC(C#C)C1CN1	COC[C@@H](C#C)[C@H]1CN1	
InChI=1S/C7H11NO/c1-3-6(5-9-2)7-4-8-7/h1,6-8H,4-5H2,2H3	InChI=1S/C7H11NO/c1-3-6(5-9-2)7-4-8-7/h1,6-8H,4-5H2,2H3/t6-,7-/m1/s1
