21
gdb 100959	2.56675	1.10289	0.89189	1.7294	74.74	-0.2484	0.0673	0.3157	1356.0284	0.179534	-461.327846	-461.317308	-461.316363	-461.36386	39.351	
C	-0.0165469478	 1.5487244851	 0.2514102902	-0.411364
C	-0.0552435065	 0.0343581381	 0.0087666393	-0.053376
C	-1.5208109722	-0.4360930272	-0.1040705012	-0.080545
O	-2.3067223178	-0.0787596402	 1.0231150333	-0.418179
C	 0.7547524535	-0.4678159001	-1.1934307174	 0.359014
O	 0.5522810154	-1.8360479683	-1.4841314775	-0.468351
C	 1.0909187904	 0.407063876	-2.3910184651	-0.398265
C	 2.1793575232	-0.0850675802	-1.4549392679	 0.072177
O	 2.8339179872	 0.789302593	-0.5849318271	-0.41804
H	 1.0013262325	 1.9049427509	 0.4039718587	 0.134702
H	-0.4562454491	 2.0924890124	-0.5926480966	 0.106339
H	-0.6207726111	 1.7831822144	 1.1304977699	 0.120794
H	 0.3711479713	-0.4688362852	 0.8908297976	 0.077398
H	-2.0010858253	 0.0517665662	-0.9618954253	 0.103466
H	-1.5547517954	-1.5209671452	-0.268715559	 0.087855
H	-1.961909531	-0.5605241979	 1.7821300968	 0.281938
H	-0.2565093783	-1.9151862831	-2.0007827198	 0.283813
H	 1.0309841266	-0.0363284599	-3.3793000015	 0.10966
H	 0.8340805913	 1.4584484133	-2.335613219	 0.119898
H	 2.7907292568	-0.9080411383	-1.8227681587	 0.101026
H	 3.4056399262	 1.358052986	-1.1110317299	 0.290042
18.9704	103.9324	175.1812	222.8214	241.2827	258.0795	274.0289	297.4118	311.9288	329.0281	363.7883	388.6637	460.8046	474.1489	496.8911	565.922	713.4217	822.5758	877.3839	909.8054	922.3517	927.2811	985.7321	1032.5032	1057.2906	1062.2958	1088.634	1122.9624	1133.7364	1175.0335	1215.9482	1231.9302	1284.9478	1314.3021	1321.1624	1345.2093	1357.175	1392.2861	1405.8281	1416.0058	1417.443	1491.0907	1501.2145	1508.3521	1517.9087	2982.8709	3007.3525	3041.6498	3057.8933	3113.123	3113.7715	3136.0806	3164.0437	3231.25	3805.4977	3807.0173	3811.2021
CC(CO)C1(O)CC1O	C[C@@H](CO)[C@@]1(O)C[C@H]1O	
InChI=1S/C6H12O3/c1-4(3-7)6(9)2-5(6)8/h4-5,7-9H,2-3H2,1H3	InChI=1S/C6H12O3/c1-4(3-7)6(9)2-5(6)8/h4-5,7-9H,2-3H2,1H3/t4-,5+,6-/m0/s1
