17
gdb 102333	1.8519	1.42751	1.1868	5.5631	72.81	-0.3047	-0.0072	0.2975	1169.9844	0.133644	-418.023344	-418.013067	-418.012123	-418.058588	35.467	
C	-0.0541450042	 1.5569752525	 0.0750189022	-0.411815
C	 0.0143526003	 0.0331447767	-0.0207594955	-0.213114
C	 0.7397727717	-0.5015433101	-1.2955710144	-0.102067
C	 0.7478352693	-2.0515561467	-1.2839860971	-0.090589
O	 1.4082840889	-2.4846822581	-2.4455442672	-0.401955
C	 0.0338910787	-0.0314297661	-2.5020917825	 0.330564
N	-0.5746023591	 0.3410545594	-3.40980521	-0.333135
C	 2.1306445103	-0.0116724091	-1.3172446475	 0.330565
N	 3.2167271038	 0.3767732188	-1.2673779195	-0.333137
H	 0.9461311148	 1.9983144999	 0.0994683665	 0.150955
H	-0.5974521259	 1.9837471946	-0.7726909586	 0.150955
H	-0.5746084042	 1.8476639874	 0.9913078173	 0.129094
H	 0.5431792214	-0.3794806846	 0.844638587	 0.127153
H	-0.9938078455	-0.3939782286	-0.0238922258	 0.127154
H	 1.2572321986	-2.3765594673	-0.365416633	 0.117363
H	-0.2971041319	-2.3912111378	-1.2437341832	 0.117362
H	 1.4252046829	-3.4461838308	-2.4591782486	 0.304648
99.2454	110.0053	122.8818	153.0298	153.1141	184.6058	197.6758	238.505	276.6564	375.4136	397.0277	485.8604	513.7651	584.9596	642.5893	683.4373	792.5708	919.4669	959.4606	1013.0698	1075.7622	1077.6927	1117.9109	1141.0868	1203.8307	1255.3539	1269.7255	1340.1274	1363.3748	1420.877	1452.1903	1480.6495	1499.1332	1507.1457	1516.1211	2363.9686	2369.4629	2991.1153	3034.1051	3047.2994	3050.1794	3091.7819	3124.1755	3128.1495	3838.2781
CCC(CO)(C#N)C#N	CCC(CO)(C#N)C#N	
InChI=1S/C6H8N2O/c1-2-6(3-7,4-8)5-9/h9H,2,5H2,1H3	InChI=1S/C6H8N2O/c1-2-6(3-7,4-8)5-9/h9H,2,5H2,1H3
