14
gdb 61356	3.26445	0.93837	0.83179	4.4047	69.84	-0.287	-0.0929	0.194	1341.3272	0.097331	-436.657452	-436.647859	-436.646915	-436.693154	32.949	
O	 0.7154961385	 1.3553214637	-0.6339189426	-0.413156
C	 0.1402269963	 0.1731568395	-0.096949515	-0.050853
C	 0.1676263235	-0.9855911475	-1.1328027402	-0.323702
C	-0.4619024214	-0.5157045379	-2.4290618062	 0.31781
O	-1.644431839	-0.5453561075	-2.6544841158	-0.263823
C	 0.4792131752	 0.0210413297	-3.4337421091	 0.226666
N	 1.2328208502	 0.4081248641	-4.2207947137	-0.306984
C	 0.7697118797	-0.2412409794	 1.1552971071	 0.288863
C	 1.3307531569	-0.5868833223	 2.1602335516	-0.419023
H	 1.6752602823	 1.2628825516	-0.6174653824	 0.297018
H	-0.9098630452	 0.4281701272	 0.0858764743	 0.147745
H	 1.2011923911	-1.3050745534	-1.2951355384	 0.134102
H	-0.4168942395	-1.8272820357	-0.7526252809	 0.153164
H	 1.8108594314	-0.8809250921	 3.0614980313	 0.212172
40.1105	51.6272	115.984	161.5457	199.4858	230.6149	286.953	322.3104	393.0034	438.8908	504.4649	567.653	627.22	650.4862	684.799	688.6133	782.4829	875.6853	972.4103	1017.7847	1053.5799	1117.8955	1218.0909	1275.757	1293.6779	1342.8534	1421.5612	1466.5285	1799.9629	2236.8005	2337.7235	3052.6838	3064.7526	3126.8229	3499.7001	3802.8352
OC(CC(=O)C#N)C#C	O[C@@H](CC(=O)C#N)C#C	
InChI=1S/C6H5NO2/c1-2-5(8)3-6(9)4-7/h1,5,8H,3H2	InChI=1S/C6H5NO2/c1-2-5(8)3-6(9)4-7/h1,5,8H,3H2/t5-/m1/s1
