20
gdb 51576	4.06267	0.84555	0.76129	3.7981	81.55	-0.2442	0.0302	0.2744	1520.1998	0.170873	-403.14308	-403.133864	-403.13292	-403.178588	33.695	
O	 0.1549158546	 0.6982692439	-1.5142264959	-0.315771
C	 0.0798863951	 1.4195932312	-0.5449035092	 0.150206
N	 1.1055651883	 1.7000441181	 0.3077811109	-0.28333
C	 2.3951014853	 1.0847656095	 0.2074621651	 0.034126
C	 3.3516584084	 1.551609302	-0.8606460675	-0.294083
C	 3.607925923	 1.9074698377	 0.5832664241	-0.044952
C	 3.4676741637	 3.3181246336	 1.0640389469	 0.007638
C	 3.5554648265	 3.6344251997	 2.5421047089	-0.276465
C	 4.6651671137	 4.0536956312	 1.6107944981	-0.272528
H	-0.8504895492	 1.9474506724	-0.2490123333	 0.067964
H	 0.8970495008	 2.235130709	 1.137160114	 0.249767
H	 2.412003578	 0.0252275628	 0.4510372965	 0.104278
H	 3.974629161	 0.8079534299	-1.3436262555	 0.119231
H	 3.0006841127	 2.342026853	-1.5143485974	 0.12509
H	 4.3947590006	 1.3489077447	 1.0845459156	 0.086217
H	 2.7676676244	 3.919079621	 0.4911784819	 0.08676
H	 2.9056868963	 4.4019618046	 2.9484283023	 0.111704
H	 3.7510179306	 2.8123983009	 3.2230712385	 0.113567
H	 5.6047712912	 3.5141803613	 1.6676393048	 0.115334
H	 4.7725322451	 5.1068988534	 1.3769033412	 0.11525
29.0097	55.8218	121.5082	162.6596	233.5798	247.6808	298.1642	383.6193	448.7896	537.2818	567.9319	733.9757	756.4308	801.6642	827.4316	832.9089	876.208	928.5101	951.6316	993.6522	1023.5321	1032.0843	1034.1232	1058.93	1064.8119	1079.7298	1122.0622	1134.8931	1148.4507	1197.4261	1200.2614	1222.6769	1236.0814	1275.7513	1315.7263	1394.7137	1432.1868	1447.9815	1468.1761	1487.5723	1502.6644	1509.7921	1814.7906	2918.5869	3124.8354	3128.3918	3132.7448	3136.301	3143.5658	3152.0158	3207.3431	3223.3858	3231.6096	3612.7335
O=CNC1CC1C1CC1	O=CN[C@H]1C[C@H]1C1CC1	
InChI=1S/C7H11NO/c9-4-8-7-3-6(7)5-1-2-5/h4-7H,1-3H2,(H,8,9)	InChI=1S/C7H11NO/c9-4-8-7-3-6(7)5-1-2-5/h4-7H,1-3H2,(H,8,9)/t6-,7-/m0/s1
