21
gdb 89762	2.02363	1.66326	1.11103	0.6136	88.56	-0.2511	0.0455	0.2966	1188.0104	0.181084	-349.901873	-349.892633	-349.891689	-349.935648	35.887	
C	-0.300053653	 1.473997544	-0.0415909537	-0.396172
C	-0.0007025858	-0.0189575311	-0.0314777659	 0.010368
C	 1.2185769478	-0.4381353016	-0.9104705001	-0.322103
C	 2.0573857018	-0.5723396202	 0.3637747397	 0.37958
C	 3.3133259463	-1.3497693115	 0.6057447265	-0.334816
C	 3.3281708048	 0.1618457357	 0.6673442623	-0.32008
C	 0.780246382	-0.5422223685	 1.2380110221	-0.26371
C	 0.7786416174	 0.240616488	 2.4555524247	 0.340129
C	 0.7982604307	 0.8968086489	 3.4644600496	-0.468464
H	 0.6040856456	 2.0627819138	 0.143457012	 0.125054
H	-0.7059409793	 1.7739208642	-1.0137781868	 0.109621
H	-1.0291400711	 1.7381588444	 0.7303869122	 0.122622
H	-0.9162207587	-0.5836812677	-0.2265557366	 0.071909
H	 1.0650099633	-1.3919951087	-1.4252367752	 0.098552
H	 1.5547547614	 0.3028899062	-1.6416691869	 0.098845
H	 3.4029814301	-1.8969775869	 1.5391882848	 0.114607
H	 3.7845785506	-1.8352306155	-0.2434152279	 0.110208
H	 3.8081735562	 0.7029791362	-0.1421951091	 0.107987
H	 3.4173947643	 0.6316863624	 1.6415179482	 0.124584
H	 0.4607329531	-1.5663746714	 1.4654535268	 0.098426
H	 0.8046407126	 1.4713853093	 4.3572820931	 0.192855
61.0915	123.6004	155.0486	230.2028	237.0451	313.8702	324.4593	342.6239	378.8436	490.5868	535.7696	610.6728	614.7724	632.8819	766.0407	777.782	805.0578	829.2911	895.2722	904.1828	937.535	943.4972	984.1011	1027.0058	1054.3704	1080.0022	1083.9151	1091.3829	1120.5676	1164.0351	1189.3188	1214.9416	1236.5474	1261.141	1283.211	1331.7531	1359.9847	1379.9472	1413.2982	1462.6153	1487.0461	1493.042	1496.0475	1503.104	2225.9432	3026.5479	3033.1871	3041.994	3064.5081	3092.6983	3101.8446	3110.7852	3119.7625	3124.4657	3198.8881	3214.7565	3503.7176
CC1CC2(CC2)C1C#C	C[C@H]1CC2(CC2)[C@H]1C#C	
InChI=1S/C9H12/c1-3-8-7(2)6-9(8)4-5-9/h1,7-8H,4-6H2,2H3	InChI=1S/C9H12/c1-3-8-7(2)6-9(8)4-5-9/h1,7-8H,4-6H2,2H3/t7-,8-/m0/s1
