20
gdb 73991	2.97764	1.65897	1.26251	1.4099	87.35	-0.1973	-0.0301	0.1672	1062.7681	0.169814	-365.904098	-365.895804	-365.89486	-365.936308	32.856	
C	-0.1780437042	 1.2693523572	-0.314217064	-0.468279
C	-0.0628802571	-0.0589078268	 0.363355395	 0.246939
C	-1.1018338759	-0.9210528475	 0.5220807931	-0.082849
C	-1.6640712851	-1.4228040395	-0.8174082084	-0.172416
N	-0.6713324233	-2.5818821124	-0.6845171127	-0.195139
C	-0.608018692	-2.3444811514	 0.7872467465	-0.112923
C	 0.6715508468	-2.2776810508	 0.0744341871	 0.33575
C	 1.6248957091	-3.43512858	-0.0635710365	-0.468476
C	 1.2290133899	-0.8591708086	 0.3135666391	-0.361905
H	 0.375455045	 1.2978711548	-1.2631737132	 0.119906
H	-1.2238196127	 1.526536526	-0.5066627595	 0.125882
H	 0.2434756673	 2.0681521076	 0.3105421762	 0.130184
H	-2.6583920487	-1.8810134261	-0.8139091241	 0.113185
H	-1.5508939109	-0.7738907782	-1.6915610399	 0.106202
H	-0.9605438825	-3.0673547362	 1.5164396795	 0.085764
H	 1.088908393	-4.3851477566	-0.1049872479	 0.135199
H	 2.2235477377	-3.3430690402	-0.976457163	 0.122995
H	 2.3154693991	-3.4583699363	 0.7876240296	 0.115558
H	 1.8563921977	-0.4694021485	-0.4980796597	 0.110942
H	 1.8656145968	-0.8844691464	 1.2110224926	 0.113479
138.1521	168.8508	191.1799	230.4442	281.466	299.2106	379.9735	434.9013	485.1587	536.2131	556.3095	624.4305	736.0365	783.1983	809.0326	861.6363	899.5587	921.7514	944.7445	985.418	1019.8381	1026.8495	1042.471	1063.2512	1074.7061	1087.8103	1123.0081	1179.3309	1195.713	1199.6848	1259.6437	1267.7279	1298.2462	1385.8403	1403.8528	1414.4124	1459.0615	1471.055	1485.0562	1486.8339	1494.7265	1510.3254	1598.3256	2990.0443	3003.2869	3031.2306	3035.3907	3044.4659	3049.862	3088.3711	3092.7096	3103.055	3131.3527	3154.7053
CC1=C2CN3C2C3(C)C1	C[C]1[C]2CN3[C@H]2[C@]3(C)C1	
InChI=1S/C8H11N/c1-5-3-8(2)7-6(5)4-9(7)8/h7H,3-4H2,1-2H3	InChI=1S/C8H11N/c1-5-3-8(2)7-6(5)4-9(7)8/h7H,3-4H2,1-2H3/t7-,8+,9?/m1/s1
