15
gdb 96788	3.80271	1.17109	0.9006	3.158	78.82	-0.2304	-0.0624	0.168	1236.2753	0.112679	-454.009028	-454.000575	-453.99963	-454.042159	30.912	
C	-0.0858818513	 1.4517045595	 0.0536526002	-0.340329
N	-0.0256033111	 0.0070736121	 0.1640468503	-0.319324
C	-1.0689541213	-0.6916943801	 0.0875730761	 0.458389
O	-2.3628839658	-0.1505000306	-0.1114354106	-0.237847
C	-3.2544128914	-1.1807364108	-0.1520794095	 0.417142
O	-4.4331734815	-1.0489701937	-0.3298661646	-0.348687
C	-2.4993828059	-2.4544246785	 0.0444790579	 0.249204
N	-3.2083414261	-3.608006654	 0.0850903853	-0.600775
C	-1.1930212791	-2.136548036	 0.177759034	-0.351895
H	 0.5570245308	 1.7681108803	-0.7758031417	 0.132771
H	-1.0917976199	 1.8550053494	-0.1012353481	 0.134665
H	 0.3385274258	 1.8919905354	 0.9632633837	 0.133251
H	-4.1671713478	-3.5484785895	-0.2222904625	 0.277723
H	-2.74451677	-4.4928866534	-0.0271167098	 0.269284
H	-0.3408706353	-2.7801872799	 0.3296021793	 0.126429
98.4542	114.1839	181.8922	203.0005	275.1122	301.3779	330.9446	440.7233	450.1127	500.1128	574.7487	618.5811	681.9126	706.9396	796.9973	812.1747	830.3626	902.0704	1022.2583	1072.8614	1097.2588	1130.199	1158.2043	1259.8144	1317.577	1393.8043	1437.463	1490.9339	1493.7731	1620.2505	1720.4298	1785.5427	1873.9846	3020.9451	3077.5043	3099.1514	3260.1405	3591.5107	3717.1093
CN=C1OC(=O)C(N)=C1	C[N]C1=C[C](C(=O)O1)N	
InChI=1S/C5H6N2O2/c1-7-4-2-3(6)5(8)9-4/h2H,6H2,1H3	InChI=1S/C5H6N2O2/c1-7-4-2-3(6)5(8)9-4/h2H,6H2,1H3
