20
gdb 75013	3.18527	1.41229	1.22985	1.2817	78.9	-0.2389	0.0314	0.2703	1106.525	0.173602	-403.202313	-403.194457	-403.193512	-403.23482	30.523	
C	-0.0972274086	 1.4997757205	-0.0951524444	-0.473491
C	 0.023327002	 0.0137699813	-0.1129813397	 0.401256
N	-0.2503051336	-0.7544978993	-1.0879952351	-0.313729
C	 0.0326832029	-2.1286395564	-0.6455464796	-0.009296
C	 1.2102864559	-2.7607250931	-1.4199607295	-0.205686
C	 2.4582276239	-2.348574969	-0.6204141472	-0.212724
C	 1.9935243249	-2.4602992935	 0.8432275613	-0.221243
C	 0.5394671366	-1.9676761986	 0.8269952646	 0.084787
O	 0.4692659628	-0.5374256087	 1.0508584145	-0.269191
H	 0.8734885199	 1.9568252026	 0.1216018064	 0.142443
H	-0.4602425058	 1.8504448548	-1.0605204612	 0.150412
H	-0.7868712713	 1.8142804851	 0.694467672	 0.143713
H	-0.8779663916	-2.72787443	-0.7360952248	 0.078039
H	 1.1079469441	-3.8526389227	-1.4175742711	 0.09323
H	 1.222828271	-2.4271565469	-2.4597642965	 0.112394
H	 3.3314417705	-2.9691791341	-0.837679515	 0.095807
H	 2.7277039494	-1.3123336282	-0.8527410963	 0.110778
H	 2.0061262027	-3.5097958125	 1.1616977897	 0.099742
H	 2.6013142414	-1.8923973302	 1.5520236726	 0.109027
H	-0.0835010371	-2.4414673912	 1.5888953594	 0.083732
95.1375	126.264	150.7239	239.4914	296.1341	399.0476	434.2279	566.9679	580.0339	623.7429	673.4477	803.8962	834.2101	847.413	860.006	900.3989	935.2237	945.433	968.0617	981.1479	1029.9364	1043.549	1065.562	1078.2016	1114.2297	1167.8764	1186.5278	1213.6832	1256.4702	1281.125	1311.2297	1316.9135	1337.7229	1343.1462	1359.3027	1377.088	1413.9251	1473.3257	1475.3372	1476.9478	1483.5999	1499.2588	1735.2985	3034.2658	3036.7178	3048.5471	3050.1949	3059.0611	3084.6774	3097.5947	3104.7447	3106.9937	3112.6625	3165.7312
CC1=NC2CCCC2O1	CC1=N[C@H]2CCC[C@H]2O1	
InChI=1S/C7H11NO/c1-5-8-6-3-2-4-7(6)9-5/h6-7H,2-4H2,1H3	InChI=1S/C7H11NO/c1-5-8-6-3-2-4-7(6)9-5/h6-7H,2-4H2,1H3/t6-,7+/m0/s1
