23
gdb 95326	2.99491	1.30499	1.05736	0.259	92.95	-0.2257	0.029	0.2547	1248.5909	0.208187	-351.16587	-351.157551	-351.156607	-351.198411	33.731	
C	-0.0504503798	 1.5692930089	 0.045395913	-0.383108
C	-0.01103953	 0.0289903251	-0.0051599377	-0.000374
C	 0.5820239391	-0.4888264719	-1.3437247675	-0.216363
C	 2.1227173678	-0.5914770395	-1.3447625865	-0.237817
C	 2.5117349454	-1.5799899225	-0.2525234564	-0.020705
C	 3.8452180253	-1.5321290906	 0.5638139752	-0.251112
C	 3.0041651378	-1.7090160456	 1.8757265134	-0.317223
C	 1.8080383062	-1.2773104784	 1.0520618778	 0.341125
C	 0.7359026653	-0.5109649574	 1.198405146	-0.242639
H	 0.9532501655	 1.9943726148	-0.06196395	 0.115197
H	-0.6779081569	 1.9716682304	-0.757181129	 0.107959
H	-0.4566104934	 1.9230922767	 0.998965453	 0.10981
H	-1.0545794394	-0.3147607433	 0.0453350781	 0.07466
H	 0.1754636542	-1.4867394882	-1.5512089201	 0.093597
H	 0.2418375886	 0.1586003464	-2.1596466117	 0.087297
H	 2.4818036096	-0.8970567205	-2.3338434502	 0.088133
H	 2.5673435608	 0.3885538547	-1.1299265993	 0.093817
H	 2.3228821048	-2.6099511219	-0.5856832974	 0.073001
H	 4.5990426371	-2.2915821217	 0.343651832	 0.095244
H	 4.3073731578	-0.5421873267	 0.518665387	 0.103937
H	 2.9569230816	-2.7605169062	 2.1818685745	 0.106275
H	 3.2725686	-1.1052567424	 2.7466512004	 0.104831
H	 0.4028967426	-0.1797611201	 2.1808675953	 0.074458
92.6029	173.1983	209.2339	237.9118	300.6821	332.0924	396.3404	434.7627	456.2956	513.4849	649.0124	688.9977	744.2268	774.8859	817.0756	866.6079	889.6864	912.8276	916.9742	947.3451	970.5627	999.534	1015.0264	1034.8113	1076.0477	1092.9065	1112.5471	1134.4542	1161.9698	1187.8487	1193.5839	1227.4178	1245.829	1262.7127	1270.7579	1308.7416	1330.5261	1339.1855	1366.6038	1371.8343	1374.1271	1408.1824	1473.8102	1482.9788	1488.8313	1493.1928	1497.9019	1501.7062	1771.0488	2987.5846	3002.447	3022.7517	3024.8837	3027.8964	3036.6987	3058.526	3063.8322	3069.6222	3092.7217	3096.3182	3098.8491	3117.6833	3134.8944
CC1CCC2CCC2=C1	C[C@H]1CC[C@H]2CC[C]2[CH]1	
InChI=1S/C9H14/c1-7-2-3-8-4-5-9(8)6-7/h6-8H,2-5H2,1H3	InChI=1S/C9H14/c1-7-2-3-8-4-5-9(8)6-7/h6-8H,2-5H2,1H3/t7-,8-/m0/s1
