18
gdb 16245	3.03181	2.04324	1.55432	1.6502	66.76	-0.2534	0.0807	0.3341	880.5212	0.153862	-384.922828	-384.915175	-384.914231	-384.95498	28.701	
C	 0.2261591426	 1.6557834874	-0.1275858239	-0.397355
C	 0.010627693	 0.1482901805	 0.0568574693	-0.07993
C	 0.6483068007	-0.6636254371	-1.0835354844	-0.095754
O	 2.0283409225	-0.753168269	-0.736739433	-0.257422
C	 2.1036447424	-0.9536108956	 0.6684411167	-0.14023
C	 0.7877374454	-0.4207326773	 1.2444189961	 0.395066
C	 0.5905334497	-0.0375907339	 2.6430510311	-0.254647
O	 0.091368151	-1.2853129923	 2.1488509035	-0.276664
H	 1.2852392838	 1.8782675374	-0.291217203	 0.131728
H	-0.3310394703	 2.0215267433	-0.9959892981	 0.11715
H	-0.1092056109	 2.2198648623	 0.74788997	 0.114513
H	-1.052139755	-0.0774342092	 0.1788777412	 0.089693
H	 0.1951225632	-1.6653886256	-1.1515987862	 0.096831
H	 0.5841479475	-0.1818387417	-2.0627176003	 0.107286
H	 2.1942791613	-2.0200056275	 0.9230272506	 0.110291
H	 2.9888264153	-0.4272969779	 1.0393718698	 0.110999
H	 1.418804621	-0.1110523539	 3.3478882355	 0.114191
H	-0.1678107532	 0.7000976301	 2.904814605	 0.114254
55.6958	189.4757	209.1131	229.829	311.1165	324.43	395.9834	500.5248	522.9079	696.2419	763.9322	828.7345	862.1179	904.3748	943.2144	954.8447	977.3668	1017.7971	1046.0396	1088.0336	1124.4163	1126.7717	1152.2149	1167.0618	1209.7006	1241.8881	1253.2871	1269.4399	1336.053	1348.9784	1377.8022	1406.1882	1438.6182	1495.2459	1500.2651	1507.1153	1519.2296	1534.6856	2979.7544	2998.6404	3036.5134	3071.1753	3073.9187	3077.8125	3093.8299	3105.2185	3113.4241	3156.4167
CC1COCC11CO1	C[C@H]1COC[C@]21CO2	
InChI=1S/C6H10O2/c1-5-2-7-3-6(5)4-8-6/h5H,2-4H2,1H3	InChI=1S/C6H10O2/c1-5-2-7-3-6(5)4-8-6/h5H,2-4H2,1H3/t5-,6+/m0/s1
