16
gdb 50744	2.36233	1.59311	1.06013	4.6248	66.71	-0.247	-0.0269	0.2201	1103.8766	0.12462	-475.056315	-475.048191	-475.047247	-475.089692	29.468	
O	-0.0165357418	-0.0998985616	-0.0348775779	-0.229941
C	 0.0183067661	 1.0933989737	-0.1436550964	 0.139588
C	 1.3070724507	 1.917294157	-0.0591230438	-0.082771
O	 2.4087664444	 1.0514029464	 0.0296093101	-0.242266
C	 3.6347723694	 1.6959517917	-0.2552191481	-0.078035
C	 3.6504667201	 2.1602903416	-1.7056888189	-0.160238
N	 2.4715811648	 2.981019537	-1.9450114291	-0.325457
C	 1.3224908689	 2.9251102841	-1.2232184227	 0.376382
O	 0.3506756552	 3.6251035119	-1.441239894	-0.377224
H	-0.8791883325	 1.7203220838	-0.3078703537	 0.118804
H	 1.2076641031	 2.5380530991	 0.8523138352	 0.12534
H	 3.7959849594	 2.5521364859	 0.4193079281	 0.103775
H	 4.4237771458	 0.9611782224	-0.0789206044	 0.127301
H	 4.5510313656	 2.7521313049	-1.9031461823	 0.1199
H	 3.6648098233	 1.2869578344	-2.3710949346	 0.128396
H	 2.4476136875	 3.6096076777	-2.7351671476	 0.256445
57.7155	121.4317	142.8396	218.4079	284.3738	338.599	419.997	468.4207	494.0132	545.9635	647.032	680.3413	721.874	766.5929	890.0279	930.3969	988.4353	1026.459	1067.3864	1107.7108	1135.5318	1178.2681	1245.024	1265.1569	1280.2111	1326.8296	1350.1321	1390.181	1398.2242	1416.5307	1475.8399	1497.1468	1515.7129	1785.3984	1848.5306	2929.7216	2959.5635	2982.6737	3017.9516	3070.0675	3107.7883	3607.3246
O=CC1OCCNC1=O	O=C[C@H]1OCCNC1=O	
InChI=1S/C5H7NO3/c7-3-4-5(8)6-1-2-9-4/h3-4H,1-2H2,(H,6,8)	InChI=1S/C5H7NO3/c7-3-4-5(8)6-1-2-9-4/h3-4H,1-2H2,(H,6,8)/t4-/m1/s1
