21
gdb 60484	4.94602	0.5603	0.55509	1.6616	82.2	-0.2617	0.0491	0.3108	2039.2824	0.179024	-424.185956	-424.174991	-424.174047	-424.223223	38.805	
C	-0.1629601963	 1.5524261824	-0.0401723226	-0.391992
C	 0.054459598	 0.0365654599	-0.0324905825	 0.131271
O	 0.8365665552	-0.3847064812	-1.1412239341	-0.438533
C	 0.6952521921	-0.4564239282	 1.265182616	-0.07926
O	 2.0047869047	 0.0850558922	 1.3173091505	-0.261614
C	 2.7671208137	-0.3671469669	 2.4142388012	-0.044983
C	 4.1505056457	 0.2857995795	 2.3217163843	-0.352951
C	 5.0186501077	-0.1107241522	 3.4216017208	 0.286026
C	 5.7119137523	-0.4550028343	 4.3407184935	-0.444698
H	 0.7824939292	 2.0747853558	 0.1325996843	 0.12302
H	-0.5628779115	 1.863431137	-1.0083574572	 0.123113
H	-0.8680158429	 1.854862794	 0.7418793458	 0.107171
H	-0.912509078	-0.4695507923	-0.1402026527	 0.085032
H	 1.7464004893	-0.1464437232	-0.9250489221	 0.283246
H	 0.1084880119	-0.1405943798	 2.1426257681	 0.089973
H	 0.7429805737	-1.5562026972	 1.2596807638	 0.09718
H	 2.2838162112	-0.0919119892	 3.364232758	 0.104364
H	 2.8635420943	-1.4637524133	 2.3984240385	 0.105383
H	 4.6045030351	 0.0134915869	 1.3613446691	 0.138479
H	 4.02392882	 1.3749182546	 2.3095809957	 0.141275
H	 6.3357025245	-0.7511612546	 5.1472901116	 0.198499
39.1203	60.6382	85.5966	114.327	157.0319	164.0092	235.5752	297.2028	354.6988	370.1762	384.0376	403.574	443.6466	510.3578	626.6714	652.5064	658.6182	797.7711	826.1857	931.8462	941.6384	976.2637	999.8549	1055.6289	1086.3987	1090.9949	1117.6155	1156.5407	1167.5832	1228.6802	1266.0142	1297.6257	1301.0987	1314.472	1368.5267	1383.9739	1401.257	1430.8752	1440.9603	1477.393	1488.3737	1500.3047	1504.8555	1531.6477	2243.1094	2970.5256	2982.8252	3011.7996	3014.2486	3033.787	3038.2682	3043.2306	3071.5944	3109.5169	3128.2322	3506.6736	3786.4018
CC(O)COCCC#C	C[C@@H](O)COCCC#C	
InChI=1S/C7H12O2/c1-3-4-5-9-6-7(2)8/h1,7-8H,4-6H2,2H3	InChI=1S/C7H12O2/c1-3-4-5-9-6-7(2)8/h1,7-8H,4-6H2,2H3/t7-/m1/s1
