17
gdb 104292	2.14684	1.42547	1.10453	2.55	64.68	-0.2474	-0.0368	0.2105	1138.3289	0.132851	-496.071567	-496.062217	-496.061273	-496.106228	33.313	
O	-0.0554739598	 1.4044297655	-0.2562062646	-0.438545
C	 0.0582500183	-0.0106713254	-0.1241996676	-0.160425
C	-1.371504362	-0.528108655	-0.0248914236	 0.342267
O	-2.0557146219	 0.1314217863	 1.0010770516	-0.47766
C	-2.1271162905	-0.6739129716	-1.376616081	-0.112959
O	-2.0592887314	-2.1179165416	-1.3032175003	-0.295773
C	-1.5346438943	-2.071861525	 0.0334926622	 0.003402
C	-0.3128418582	-2.9485525004	 0.1907795105	 0.119194
O	 0.4634500725	-2.8642700173	 1.1090622128	-0.246323
H	 0.7969925814	 1.8019462191	-0.058751415	 0.301075
H	 0.5714025969	-0.4552598316	-0.9892644105	 0.101706
H	 0.60534638	-0.2900829894	 0.784206146	 0.130572
H	-1.7228443431	 1.0397522721	 0.9968060248	 0.291122
H	-3.1576484771	-0.3075319119	-1.3174788704	 0.112065
H	-1.6368741321	-0.2868182608	-2.2759602867	 0.111181
H	-2.2803518344	-2.3486519852	 0.7935142174	 0.121827
H	-0.1843960243	-3.6834908978	-0.6352637653	 0.097275
66.2171	94.0645	116.4082	154.637	197.1459	273.1879	299.0436	359.6589	401.4532	451.6741	461.6959	505.2213	583.3648	714.1288	796.8458	893.5418	928.1651	991.449	1003.5414	1049.4166	1055.1008	1069.7169	1102.0913	1151.4183	1161.4886	1197.2623	1233.4787	1263.0134	1288.9305	1328.6633	1341.1836	1391.2759	1416.596	1453.4731	1508.2483	1517.7005	1821.4088	2889.653	2999.0601	3004.2544	3033.5944	3061.6131	3090.9243	3749.3146	3844.5874
OCC1(O)COC1C=O	OC[C@@]1(O)CO[C@H]1C=O	
InChI=1S/C5H8O4/c6-1-4-5(8,2-7)3-9-4/h1,4,7-8H,2-3H2	InChI=1S/C5H8O4/c6-1-4-5(8,2-7)3-9-4/h1,4,7-8H,2-3H2/t4-,5+/m0/s1
