20
gdb 97329	4.26585	0.72918	0.65802	0.5606	81.81	-0.26	-0.0174	0.2426	1777.0325	0.167441	-440.328435	-440.317655	-440.316711	-440.365405	37.1	
C	 0.6679594872	 1.4564137925	 0.0856997437	-0.31805
N	 1.0262667342	 0.0539805095	-0.0004984532	-0.192929
C	 0.5192393307	-0.6086299223	-0.9362518858	 0.110802
O	 0.8383292025	-1.9407949546	-1.0417321466	-0.230089
C	 0.290641916	-2.6599739039	-2.0793780285	 0.464958
O	-0.4599436251	-2.1896420736	-2.8903495196	-0.341049
C	 0.7897530909	-4.0910371368	-2.0338916014	-0.096581
C	-0.0319019104	-4.9819533546	-2.967247615	-0.38601
C	 2.2960249436	-4.1261162025	-2.3672999415	-0.396086
H	 1.5773266584	 2.0645621323	 0.0296123593	 0.134697
H	-0.0278331487	 1.7921051208	-0.6986095447	 0.106128
H	 0.2135643644	 1.6526427676	 1.0629081042	 0.134896
H	-0.1691665839	-0.2581833481	-1.7083633904	 0.132033
H	 0.6718185836	-4.4250287437	-0.9957329347	 0.111154
H	 0.058902936	-4.6457210959	-4.0036501777	 0.133234
H	 0.3207410892	-6.0155038511	-2.9059724667	 0.113506
H	-1.0930667677	-4.9629248651	-2.7059041716	 0.126092
H	 2.8691381744	-3.4967044183	-1.6830234353	 0.141834
H	 2.6692552918	-5.1512244586	-2.2893317923	 0.123816
H	 2.4752029128	-3.7795014434	-3.3905874324	 0.127642
36.8279	66.98	88.4612	120.5104	205.825	210.4681	224.7535	235.0615	297.4106	309.9031	350.0418	387.2804	415.0068	581.1559	648.1457	748.5958	849.5908	925.182	937.0461	972.8389	992.244	1060.6963	1093.4744	1117.675	1139.9669	1142.0836	1164.37	1186.3581	1205.8697	1321.0821	1360.9693	1376.9998	1401.4471	1423.2377	1447.298	1480.8898	1487.5288	1487.9295	1500.5672	1501.4279	1512.0932	1776.9846	1835.474	2983.3808	3037.5745	3042.217	3048.4877	3070.0545	3088.105	3109.9388	3112.3616	3121.0423	3125.2265	3131.9179
CN=COC(=O)C(C)C	CN=COC(=O)C(C)C	
InChI=1S/C6H11NO2/c1-5(2)6(8)9-4-7-3/h4-5H,1-3H3	InChI=1S/C6H11NO2/c1-5(2)6(8)9-4-7-3/h4-5H,1-3H3
