17
gdb 112328	2.81939	1.39144	1.03404	3.0374	70.09	-0.2481	0.0102	0.2584	1139.4249	0.13766	-455.126338	-455.118472	-455.117527	-455.15899	30.012	
O	 0.068539331	 1.340466927	-0.1758105111	-0.42185
C	 0.0431431449	-0.071771872	-0.1207363805	-0.073007
C	-1.3544507468	-0.5944875596	 0.1888553659	 0.092315
O	-2.2466203115	-0.1122500035	-0.851341372	-0.279932
C	-3.0895618299	-1.0972149356	-1.2988293946	 0.463087
N	-4.1026074949	-0.9164449036	-2.0277278657	-0.548833
C	-2.6240761385	-2.4045164079	-0.7588646775	-0.132108
N	-1.2115354971	-2.6789651184	-1.1386875516	-0.331166
C	-1.518460942	-2.1035037082	 0.1802932474	-0.085146
H	-0.5601376911	 1.599478381	-0.8588791733	 0.293083
H	 0.3896676063	-0.5325379013	-1.0550072931	 0.118453
H	 0.7257133748	-0.3686386188	 0.6832483527	 0.107865
H	-1.7041101804	-0.1753877735	 1.1405064042	 0.098441
H	-4.2317224613	 0.0770030034	-2.2276271323	 0.22431
H	-3.3289307644	-3.2167450249	-0.6446782634	 0.122147
H	-1.0449857026	-3.677980584	-1.0384631271	 0.243689
H	-1.3460286264	-2.67142336	 1.0870976119	 0.108652
101.7253	126.405	154.9313	231.72	336.2858	395.1288	419.2843	476.6269	502.206	621.3209	698.1916	754.7793	830.4441	835.4641	871.5493	890.4817	911.0666	926.8632	1002.4468	1029.893	1039.5393	1080.4374	1102.3958	1107.7651	1144.9456	1152.6463	1225.9815	1253.2143	1275.1666	1320.3653	1363.4058	1385.4104	1399.6587	1412.5181	1433.9667	1500.1993	1786.8859	3022.7162	3038.7123	3080.7426	3184.1963	3217.8141	3473.5867	3499.0922	3807.3719
OCC1OC(=N)C2NC12	OC[C@H]1O[C]([NH])[C@H]2N[C@@H]12	
InChI=1S/C5H8N2O2/c6-5-4-3(7-4)2(1-8)9-5/h2-4,6-8H,1H2	InChI=1S/C5H8N2O2/c6-5-4-3(7-4)2(1-8)9-5/h2-4,6-8H,1H2/t2-,3+,4+/m1/s1
