19
gdb 30657	3.99439	1.01313	0.83445	2.3619	77.89	-0.2182	0.0299	0.2481	1385.7141	0.160448	-419.252142	-419.243204	-419.24226	-419.286274	33.152	
C	 0.0612674017	 1.550154212	-0.3002705745	-0.389708
C	-0.0306203487	 0.0317234667	-0.4581452374	-0.1812
C	-1.2345643409	-0.5698595863	 0.2700065522	 0.001334
O	-2.4882476564	-0.0826790604	-0.2233571474	-0.438325
C	-1.2257506048	-2.0758150187	 0.2387463419	 0.334129
N	-0.1798248917	-2.8748522936	 0.231267283	-0.318108
C	-0.6930091766	-4.1521681541	 0.252627988	-0.091698
C	-2.0626281434	-4.1218353035	 0.2706383484	-0.113836
N	-2.3900278305	-2.7850535242	 0.2626679691	-0.270269
H	 0.8979027452	 1.9550202704	-0.8768378028	 0.113441
H	-0.8571668679	 2.0370923697	-0.6410544123	 0.121436
H	 0.2129395014	 1.8281836415	 0.7485502475	 0.117141
H	-0.097494608	-0.2423752769	-1.520548953	 0.090272
H	 0.8696310079	-0.4629698436	-0.0813608337	 0.136071
H	-1.2175026262	-0.2339589567	 1.3161643517	 0.109852
H	-2.4833690818	-0.2057702925	-1.1802100755	 0.28051
H	-0.0476555773	-5.017493048	 0.2487929767	 0.105351
H	-2.8116489271	-4.8959103969	 0.2779354367	 0.126173
H	-3.305329315	-2.3663601348	 0.2640020614	 0.267433
58.8341	92.068	139.9821	192.1163	226.9219	288.4009	347.544	367.4337	463.3579	484.6935	599.7686	667.262	690.0948	733.4602	769.4857	818.4513	854.6232	894.944	934.2562	979.4423	1000.1053	1064.5264	1088.6038	1097.3162	1135.6355	1139.4468	1182.6843	1246.3501	1249.6606	1307.1049	1327.7499	1379.3048	1399.7714	1406.5074	1415.0567	1461.0563	1480.7143	1496.2091	1503.2708	1508.2978	1578.8527	3007.2921	3022.3077	3037.3381	3087.7343	3105.1858	3117.0531	3247.3636	3280.7891	3666.4107	3785.7177
CCC(O)C1=NC=CN1	CC[C@@H](O)c1ncc[nH]1	
InChI=1S/C6H10N2O/c1-2-5(9)6-7-3-4-8-6/h3-5,9H,2H2,1H3,(H,7,8)	InChI=1S/C6H10N2O/c1-2-5(9)6-7-3-4-8-6/h3-5,9H,2H2,1H3,(H,7,8)/t5-/m1/s1
