14
gdb 28119	5.35081	1.32882	1.07157	1.8719	71.57	-0.2099	-0.0118	0.1981	1058.7201	0.102698	-436.721826	-436.714937	-436.713993	-436.75336	25.874	
C	-0.0126929515	 1.4435633213	 0.0507119728	-0.492199
C	-0.0147571731	-0.0357843957	-0.0591418122	 0.351781
N	-0.1488120868	-0.7623280825	-1.1372911251	-0.390849
C	-0.0732652442	-2.0305643544	-0.6368253847	 0.325679
C	 0.1015598593	-2.0465183994	 0.7082308599	 0.256834
O	 0.1440845118	-0.7464754644	 1.1191132594	-0.230343
C	 0.1670944674	-3.4032403112	 1.126693788	-0.358138
C	 0.020481522	-4.0979598696	-0.0465456503	-0.00169
O	-0.1290714094	-3.2774880504	-1.1458512296	-0.193591
H	 0.9298348971	 1.8062989382	 0.474364989	 0.148967
H	-0.1449796766	 1.8710110288	-0.9433108313	 0.160744
H	-0.8218563474	 1.7919398928	 0.7013252711	 0.14897
H	 0.2979179142	-3.8311030011	 2.1067258362	 0.130281
H	 0.0012325572	-5.1527954424	-0.2619472532	 0.143554
93.2401	143.0654	271.4743	284.2806	362.0159	522.6591	577.9928	596.4532	666.4427	702.1365	764.948	766.4272	811.1586	811.3197	906.4526	942.628	1018.8101	1040.0996	1060.9736	1144.8457	1172.1145	1245.9326	1296.2144	1404.0822	1433.0535	1472.1379	1480.14	1496.9342	1517.7171	1595.7668	1617.9211	3041.7876	3094.8885	3158.6979	3269.7334	3294.4501
CC1=NC2=C(O1)C=CO2	Cc1nc2c(o1)cco2	
InChI=1S/C6H5NO2/c1-4-7-6-5(9-4)2-3-8-6/h2-3H,1H3	InChI=1S/C6H5NO2/c1-4-7-6-5(9-4)2-3-8-6/h2-3H,1H3
