17
gdb 76803	2.02392	1.96214	1.25305	3.9857	64.34	-0.2462	0.0317	0.2778	1018.314	0.134312	-496.045198	-496.036591	-496.035647	-496.078269	32.734	
O	-0.104046276	 1.3543385669	-0.0603820754	-0.448777
C	 0.0087139202	-0.0529553964	-0.0762658091	 0.035876
C	 0.2425836606	-0.5910749339	 1.3754290728	-0.012703
O	 0.7914330336	 0.333278431	 2.286779854	-0.41502
C	-1.280366172	-0.7529975808	 1.4947666007	 0.346664
C	-2.1366127772	-1.2623839583	 2.5607249183	-0.274735
O	-2.0171807659	 0.1451768855	 2.3031329617	-0.252239
C	-1.4234807437	-0.6878274952	-0.0454698913	 0.071113
O	-2.4570931623	 0.0661230853	-0.5830347386	-0.425369
H	 0.1659528031	 1.6376400056	 0.8270751659	 0.298715
H	 0.6951522939	-0.3707199826	-0.8679863471	 0.068599
H	 0.7684042253	-1.5532964988	 1.3906256207	 0.086536
H	 1.7518177901	 0.2818399361	 2.2328433513	 0.29794
H	-3.1021604251	-1.6990233639	 2.3092526501	 0.123595
H	-1.6953279668	-1.5994340087	 3.4979639488	 0.117704
H	-1.4502752772	-1.6850189334	-0.4967631689	 0.088864
H	-2.2367426705	 0.9857578815	-0.3751762639	 0.293237
70.0589	192.6525	200.3882	241.0467	247.4361	275.9296	294.546	420.2347	436.0682	522.0022	553.0689	581.1798	664.1423	682.7577	792.2124	835.9936	847.9792	859.7626	953.7423	1013.4864	1086.5175	1111.1346	1119.774	1141.3968	1159.1339	1172.7048	1178.2405	1224.0093	1236.4347	1271.1237	1323.5371	1343.8367	1402.0832	1407.9857	1444.4187	1465.1409	1531.3401	3032.66	3049.0502	3066.2107	3081.1607	3169.8538	3698.4584	3742.3892	3812.7175
OC1C(O)C2(CO2)C1O	O[C@H]1[C@@H](O)[C@]2(CO2)[C@H]1O	
InChI=1S/C5H8O4/c6-2-3(7)5(1-9-5)4(2)8/h2-4,6-8H,1H2	InChI=1S/C5H8O4/c6-2-3(7)5(1-9-5)4(2)8/h2-4,6-8H,1H2/t2-,3+,4-,5+
