25
gdb 117974	2.68144	0.84543	0.7699	0.2799	85.13	-0.2567	0.0665	0.3231	1642.0427	0.225325	-426.6288	-426.616903	-426.615959	-426.665699	43.832	
C	 0.0047282274	 1.5278991386	-0.0184936475	-0.406622
C	 0.0014378017	-0.0110053611	 0.0623676843	 0.255999
C	 0.7022106753	-0.4495483487	 1.3621562154	-0.426921
C	-1.4575383725	-0.5035340207	 0.0733799749	-0.415381
C	 0.7451897854	-0.5574141566	-1.194773252	 0.117932
O	 2.0714611278	-0.0289525392	-1.2898669788	-0.443271
C	 0.7688653842	-2.0837649999	-1.3387384158	-0.216364
C	 1.3848443763	-2.536648446	-2.65798543	-0.072688
O	 1.3604008998	-3.9576805338	-2.6778348956	-0.424693
H	 1.0239728816	 1.9121440182	-0.0972540418	 0.125146
H	-0.5526205638	 1.8752771084	-0.8959452677	 0.104781
H	-0.4662821635	 1.9631896252	 0.8692736854	 0.101819
H	 0.1845065447	-0.0312921193	 2.2316609669	 0.115454
H	 0.7106655678	-1.5377959599	 1.479759474	 0.11534
H	 1.7367746273	-0.0904488229	 1.4057785485	 0.103374
H	-1.9544525293	-0.2957904692	-0.8813441692	 0.109515
H	-1.5334291605	-1.5775303688	 0.2663597014	 0.115716
H	-2.0242439371	 0.010597654	 0.8569170336	 0.110328
H	 0.2325951382	-0.1371903029	-2.0710990279	 0.079549
H	 2.6023594308	-0.4525658805	-0.6067112429	 0.278422
H	 1.3402804684	-2.5360105028	-0.5175300289	 0.097666
H	-0.2440578643	-2.4925035375	-1.2764563835	 0.111862
H	 0.806574267	-2.1165718162	-3.4977215012	 0.082553
H	 2.4088081866	-2.1478942393	-2.7423044555	 0.095881
H	 1.7902499305	-4.2521077791	-3.485898086	 0.284603
51.8826	88.2688	97.8125	142.0413	212.59	240.8635	256.3879	266.3472	286.6096	291.0012	304.7468	314.7949	354.5865	378.5282	389.6803	461.4817	532.6263	561.3059	763.3439	802.495	880.3815	935.7783	938.2779	955.3489	962.8208	1012.1325	1031.9345	1048.5048	1075.1098	1091.8202	1106.6461	1198.4069	1209.232	1235.9592	1254.1899	1273.604	1295.0801	1322.5894	1331.0072	1381.1526	1394.5983	1397.7865	1418.291	1430.7662	1456.9695	1480.3999	1486.948	1488.2627	1491.3928	1505.6664	1511.8408	1520.6917	1531.0251	2964.2575	3011.3795	3021.2583	3025.7804	3026.5286	3033.2695	3035.041	3088.6211	3089.9896	3091.2035	3094.6339	3102.1392	3107.2404	3126.8358	3805.0902	3830.8173
CC(C)(C)C(O)CCO	CC(C)(C)[C@@H](O)CCO	
InChI=1S/C7H16O2/c1-7(2,3)6(9)4-5-8/h6,8-9H,4-5H2,1-3H3	InChI=1S/C7H16O2/c1-7(2,3)6(9)4-5-8/h6,8-9H,4-5H2,1-3H3/t6-/m0/s1
