18
gdb 39779	3.01787	1.86229	1.52167	2.9617	74.97	-0.2276	0.0804	0.3081	914.9535	0.14982	-401.861462	-401.854951	-401.854006	-401.891937	27.756	
C	-0.0356372108	 1.4833865731	 0.0097276879	-0.313611
O	 1.2208514354	 0.7760004871	-0.0067570426	-0.279497
C	 0.0433457469	 0.0255577864	 0.0018253836	 0.557495
C	-0.5003752816	-0.9619584141	 1.045245163	-0.160477
C	-1.6829377961	-1.1177848514	 0.0141947758	-0.226778
C	-0.5220270106	-0.9518230829	-1.0396298013	-0.160477
C	 0.2662784445	-2.2449694822	-0.7539290457	-0.035595
N	 1.5396870953	-2.0460899682	-0.0237812338	-0.318275
C	 0.2816896789	-2.2521898185	 0.7306724993	-0.035595
H	-0.2567102542	 2.0160837259	 0.9341614125	 0.112457
H	-0.2758071601	 2.0250159303	-0.9046974532	 0.112457
H	-0.6596366947	-0.6833712937	 2.0857195803	 0.070616
H	-2.2050012354	-2.0767891774	 0.014954676	 0.095962
H	-2.3910693599	-0.2866447139	 0.0255908011	 0.102847
H	-0.7028318615	-0.663144745	-2.0738138205	 0.070616
H	 0.1117534309	-3.1333325389	-1.3552520807	 0.09064
H	 2.0581040785	-2.9229264938	-0.0334233109	 0.226575
H	 0.1395882444	-3.1463738828	 1.3264061593	 0.09064
194.8971	255.5705	299.491	366.9262	451.5797	495.1706	546.1699	682.1955	699.0397	784.9785	805.1536	816.47	850.601	884.718	896.7348	905.0094	934.3497	949.365	994.1825	1025.098	1042.0081	1055.1106	1064.2058	1104.0797	1113.6175	1124.5951	1137.3727	1158.4648	1163.1329	1198.0016	1212.2845	1228.6444	1259.9116	1291.2108	1341.1266	1395.6053	1450.2274	1493.9574	1550.5278	3068.8888	3076.4376	3129.628	3130.5541	3134.8686	3160.9649	3172.9224	3183.1005	3484.415
C1OC11C2CC1C1NC21	C1O[C@]21[C@H]1C[C@@H]2[C@H]2N[C@@H]12	
InChI=1S/C7H9NO/c1-3-5-6(8-5)4(1)7(3)2-9-7/h3-6,8H,1-2H2	InChI=1S/C7H9NO/c1-3-5-6(8-5)4(1)7(3)2-9-7/h3-6,8H,1-2H2/t3-,4+,5-,6+,7+
