22
gdb 105094	2.40449	1.33112	1.14461	2.0671	82.93	-0.211	0.0828	0.2938	1222.0339	0.192216	-404.280124	-404.270234	-404.26929	-404.315531	36.747	
C	-1.5097823837	-0.6579053797	 2.5773738749	-0.25662
O	-1.024260718	-1.7257308308	 1.7959761128	-0.288344
C	 0.1367199934	-1.5238620507	 1.0276725164	 0.435303
C	 0.6828321298	-0.1470476736	 0.7247024822	-0.333492
C	 1.4198550479	-1.0675536016	 1.6795262599	-0.331067
C	 0.2662066995	-2.5642278132	-0.0533078857	-0.044813
C	-0.5878782749	-3.7844249673	-0.0864471464	-0.259502
N	-0.7054286466	-2.7696663171	-1.1291886397	-0.097431
C	-1.9239805645	-1.9704554507	-1.1774617133	-0.319043
H	-0.7650938836	-0.2849152552	 3.294731554	 0.112493
H	-1.8588296549	 0.1822270063	 1.9619908831	 0.115302
H	-2.3577695152	-1.0538693331	 3.1410681971	 0.13127
H	 1.0943186745	 0.0210843275	-0.2646656257	 0.122964
H	 0.1984081709	 0.7221807593	 1.1527006357	 0.116425
H	 1.386025499	-0.8125004182	 2.7330375061	 0.116688
H	 2.3509105573	-1.5254702234	 1.364328694	 0.118945
H	 1.2938605415	-2.64944724	-0.4041482386	 0.084418
H	-0.1722735183	-4.7413450122	-0.3938851677	 0.105053
H	-1.3748310729	-3.8392768779	 0.6613894042	 0.122401
H	-2.3816678724	-1.7858136927	-0.1975828391	 0.118827
H	-1.7016588169	-1.0059316973	-1.6462266169	 0.114458
H	-2.6510891219	-2.4890561885	-1.8111319971	 0.115765
32.8626	62.1503	163.3623	187.8342	219.5189	228.7943	296.0131	308.3065	353.4966	392.6481	418.3367	528.7244	573.4031	686.9959	757.7662	767.3836	840.3252	902.3834	910.5022	932.8798	968.0793	999.7895	1042.2923	1058.2672	1070.0422	1102.5014	1119.9462	1133.2604	1146.3574	1172.576	1176.188	1188.2941	1210.6312	1212.1525	1274.6034	1303.2632	1353.9943	1426.4532	1445.7787	1459.0067	1480.736	1489.6432	1491.6896	1500.6268	1506.4381	1509.8009	1513.8808	2991.5625	3013.7804	3045.2903	3079.75	3093.1583	3098.0876	3108.6238	3115.9658	3135.2959	3140.583	3186.9678	3214.9022	3228.9773
COC1(CC1)C1CN1C	COC1(CC1)[C@H]1CN1C	
InChI=1S/C7H13NO/c1-8-5-6(8)7(9-2)3-4-7/h6H,3-5H2,1-2H3	InChI=1S/C7H13NO/c1-8-5-6(8)7(9-2)3-4-7/h6H,3-5H2,1-2H3/t6-,8?/m1/s1
