21
gdb 70909	2.59494	1.68246	1.27414	1.1576	81.71	-0.2392	0.0773	0.3165	1074.9959	0.183305	-387.081075	-387.07291	-387.071966	-387.112994	33.443	
C	-0.0561298897	 1.512521255	 0.0224274127	-0.502802
C	 0.0250636379	 0.0132317063	-0.0181601784	 0.35636
C	 0.8638048127	-0.7888193462	-1.0204119821	-0.352227
C	-0.1346264358	-1.98326769	-0.8369004743	 0.423711
O	-0.6788757141	-2.5535684717	-1.9965866795	-0.500695
C	 0.3876917437	-2.970968432	 0.2182124176	-0.264177
C	 0.5523661694	-2.0940878394	 1.4865803896	-0.246262
C	-0.2996818348	-0.8552110812	 1.1912761588	-0.085827
C	-1.0878849931	-1.0230141277	-0.079057063	-0.170299
H	 0.8819972923	 1.953798771	 0.3811480099	 0.116141
H	-0.2565053329	 1.9251184982	-0.9732688919	 0.116331
H	-0.8561472624	 1.8495225791	 0.6903569261	 0.115639
H	 0.7610791608	-0.3771212238	-2.0286743635	 0.099139
H	 1.9251658353	-0.9616391233	-0.8004661502	 0.075059
H	 0.0036351998	-3.0890949143	-2.4153312245	 0.274762
H	-0.36399233	-3.7528006935	 0.3733854696	 0.101075
H	 1.321375311	-3.4554570529	-0.0911596003	 0.083526
H	 0.1906612638	-2.6119147137	 2.3797310876	 0.100107
H	 1.5998829739	-1.8333484811	 1.6734481597	 0.098395
H	-0.7599180288	-0.3243762274	 2.0182396204	 0.077655
H	-2.1575974088	-0.9257249015	-0.2098869042	 0.084389
181.6376	200.4885	222.2611	241.7569	282.1852	318.2325	389.8692	420.0371	436.3329	552.6103	577.4539	689.0743	707.8388	754.4432	814.4679	851.2997	897.9131	913.1647	926.4285	947.3107	980.4892	1000.2073	1009.0369	1044.9236	1059.0018	1082.9608	1114.9561	1153.3772	1179.0158	1194.3105	1214.0672	1235.4894	1254.4724	1275.096	1288.1038	1312.8151	1335.1419	1386.5002	1413.2013	1436.6883	1485.4951	1485.9251	1490.5367	1498.743	1511.7017	3014.8838	3018.5237	3029.069	3043.9835	3069.716	3075.6963	3087.8963	3091.255	3091.9532	3165.867	3201.9958	3803.6673
CC12CC3(O)CCC1C23	C[C@@]12C[C@@]3(O)CC[C@@H]1[C@@H]23	
InChI=1S/C8H12O/c1-7-4-8(9)3-2-5(7)6(7)8/h5-6,9H,2-4H2,1H3	InChI=1S/C8H12O/c1-7-4-8(9)3-2-5(7)6(7)8/h5-6,9H,2-4H2,1H3/t5-,6+,7-,8+/m1/s1
