21
gdb 64219	2.62584	1.21086	1.04041	2.3135	79.1	-0.2413	0.0657	0.307	1264.3838	0.180904	-424.194127	-424.184683	-424.183738	-424.228542	35.637	
C	-0.2328095915	 1.56209327	 0.0045253905	-0.457627
C	-0.0290144694	 0.0543846951	 0.0161696562	 0.310638
O	-1.2471014449	-0.6401704274	-0.1510470089	-0.471728
C	 1.1795413206	-0.4357549511	-0.8244945329	-0.115477
O	 1.9565548782	-0.6557557485	 0.3686888904	-0.301676
C	 0.7812380434	-0.5244537206	 1.2086355477	 0.120036
C	 1.0212622222	 0.2617147135	 2.4574560597	 0.001261
C	 0.0639341345	 0.1067196863	 3.6184199117	-0.270199
C	 1.4557290588	-0.4555029044	 3.7136650379	-0.272534
H	 0.712248771	 2.0920751685	 0.1514385944	 0.132017
H	-0.6395462548	 1.8817372316	-0.9636040698	 0.106298
H	-0.9306980466	 1.8656112775	 0.7902293621	 0.130895
H	-1.7647843497	-0.1914492668	-0.8277393276	 0.277735
H	 0.9640485535	-1.3690354271	-1.3615185138	 0.095179
H	 1.6591482853	 0.2816906659	-1.5008536203	 0.093551
H	 0.3748639401	-1.5153550575	 1.4640840391	 0.072217
H	 1.4427589862	 1.249644633	 2.3007249495	 0.082641
H	-0.1792719479	 0.9908847892	 4.1966098487	 0.11226
H	-0.7607502965	-0.5885184099	 3.5024237427	 0.121607
H	 1.5758832669	-1.5323181008	 3.6615474265	 0.119068
H	 2.1710398006	 0.0418542135	 4.3586603462	 0.113837
64.6916	78.1342	155.2436	206.2653	252.3244	267.7208	299.285	323.4514	380.877	394.8889	465.577	528.3583	665.1671	766.7678	819.8059	835.2577	892.2597	904.6128	916.2222	937.2129	975.1159	993.6154	1013.7082	1043.7653	1061.9443	1079.2855	1110.6357	1131.1974	1153.8879	1188.7177	1196.4556	1211.2697	1222.6691	1227.5434	1285.3002	1329.1779	1333.1366	1392.1226	1406.5488	1445.6535	1471.2148	1490.8017	1496.4614	1505.0008	1517.5208	2984.9469	3007.7385	3023.5212	3061.4511	3093.0004	3122.1088	3134.3258	3138.2891	3157.0711	3212.7912	3227.6525	3808.0583
CC1(O)COC1C1CC1	C[C@@]1(O)CO[C@H]1C1CC1	
InChI=1S/C7H12O2/c1-7(8)4-9-6(7)5-2-3-5/h5-6,8H,2-4H2,1H3	InChI=1S/C7H12O2/c1-7(8)4-9-6(7)5-2-3-5/h5-6,8H,2-4H2,1H3/t6-,7+/m0/s1
