16
gdb 36015	2.2354	1.36033	0.88467	1.4526	73.71	-0.2729	-0.0028	0.27	1246.3565	0.123723	-396.917306	-396.908426	-396.907482	-396.951694	31.295	
N	 0.1263631216	-1.1678692475	-0.0312334167	-0.304906
C	 0.0754229615	-0.016324748	 0.0462298338	 0.274275
C	 0.0218646168	 1.4409778208	 0.1229355704	-0.340847
C	 1.4331019252	 2.081216473	 0.044133307	-0.145047
C	 1.2902801095	 3.5407222444	-0.0825480311	 0.311002
N	 1.1728071536	 4.683312927	-0.2004909082	-0.308955
N	 2.1910354169	 1.7715666299	 1.2498268272	-0.068656
C	 3.0415381708	 0.5768734448	 1.1889860254	-0.218005
C	 3.6437416217	 1.9348015902	 1.1579178521	-0.224361
H	-0.6006356046	 1.8163603058	-0.6950060283	 0.173046
H	-0.4438690737	 1.7407653264	 1.0661287104	 0.1825
H	 1.9290844035	 1.7225032337	-0.8752655588	 0.12688
H	 3.0589397532	-0.017857008	 2.0959809132	 0.140244
H	 3.0467163688	 0.0000358395	 0.2675003464	 0.137018
H	 4.0593661514	 2.2769898699	 0.212304066	 0.12828
H	 4.1143593038	 2.355202238	 2.0403855013	 0.137533
63.4828	89.3081	123.9755	151.1339	228.6766	249.9604	359.405	392.6173	411.3808	512.8759	537.0595	577.5039	744.5223	817.8332	897.7603	938.8343	945.6564	978.6971	1021.5612	1054.5999	1079.3338	1116.2314	1128.7194	1175.4382	1178.7229	1242.9874	1291.4503	1313.8314	1347.4062	1368.1764	1454.1332	1492.5062	1518.1265	2365.4908	2368.528	2947.6882	3065.5769	3109.3155	3113.8916	3119.9254	3199.592	3214.283
N#CCC(C#N)N1CC1	N#CC[C@@H](C#N)N1CC1	
InChI=1S/C6H7N3/c7-2-1-6(5-8)9-3-4-9/h6H,1,3-4H2	InChI=1S/C6H7N3/c7-2-1-6(5-8)9-3-4-9/h6H,1,3-4H2/t6-/m0/s1
