18
gdb 54701	3.57189	1.33466	1.27006	3.3886	74.84	-0.233	0.0282	0.2612	1049.9674	0.148877	-401.928281	-401.920386	-401.919441	-401.961712	30.361	
N	-0.0138740982	 1.3533384846	-0.1555093546	-0.531564
C	 0.1115418186	 0.0428657369	 0.2209679984	 0.391524
O	 1.1786898662	-0.432241279	 0.5630020228	-0.365524
C	-1.1829357838	-0.7528016136	 0.1806789364	-0.095455
C	-1.144501584	-2.2756360826	 0.162880116	-0.060303
C	-1.078955931	-2.775440535	 1.6124353049	-0.041816
C	-1.0511822909	-1.5519287164	 2.5224501923	-0.230656
C	-2.0257120706	-0.9087378739	 1.4964836706	-0.086666
C	-2.3976745912	-2.3677165762	 1.0051650926	-0.102369
H	 0.7845891841	 1.9568717797	-0.0431846581	 0.257114
H	-0.9089276532	 1.7725435176	-0.3369974345	 0.255371
H	-1.8374053955	-0.384208537	-0.6172396181	 0.07139
H	-0.8466310656	-2.9138736368	-0.6583363788	 0.088732
H	-0.7273770049	-3.7769087965	 1.8235189882	 0.085031
H	-1.5635970478	-1.7520893839	 3.4677676392	 0.092896
H	-0.0947152217	-1.0547490602	 2.7038312817	 0.117153
H	-2.7216673666	-0.1260237321	 1.792254166	 0.065983
H	-3.3346033438	-2.8833510656	 0.856031185	 0.089158
23.8209	150.6327	172.6282	183.6235	368.2324	394.1272	448.8772	566.4083	638.6284	702.2259	741.9718	757.4343	785.1899	802.1826	829.2878	876.4035	909.9368	957.4405	983.1123	994.6722	1005.0398	1029.3068	1032.9181	1057.0681	1080.9106	1094.8408	1131.489	1161.0607	1168.3504	1200.8552	1241.183	1275.8469	1279.9571	1325.2013	1364.6153	1415.5057	1492.6274	1614.6679	1788.3504	3042.9108	3054.8711	3112.1671	3130.3435	3197.7493	3204.8382	3228.5881	3597.3758	3733.829
NC(=O)C1C2C3CC1C23	NC(=O)[C@H]1[C@H]2[C@H]3C[C@@H]1[C@@H]23	
InChI=1S/C7H9NO/c8-7(9)6-3-1-2-4(3)5(2)6/h2-6H,1H2,(H2,8,9)	InChI=1S/C7H9NO/c8-7(9)6-3-1-2-4(3)5(2)6/h2-6H,1H2,(H2,8,9)/t2-,3+,4-,5-,6+/m0/s1
