13
gdb 129290	3.91235	1.17519	0.90373	1.3831	73.74	-0.2601	-0.1136	0.1466	1173.0949	0.088918	-452.733911	-452.726528	-452.725584	-452.766238	26.841	
N	-0.0695372724	 1.2508580414	 0.3777887024	-0.512425
C	-0.0512172028	 0.0529757396	-0.0431789527	 0.428896
O	 1.1340382138	-0.545229151	-0.4469117834	-0.287778
N	 1.2161306854	-1.8593923605	-0.9189309986	-0.064804
C	 0.122571337	-2.5284222586	-0.9724273595	-0.014179
C	-1.1782942672	-2.0219626274	-0.5816888385	 0.174914
C	-2.3742626732	-2.8891143584	-0.6874450449	 0.103205
O	-2.3385147739	-4.0264389471	-1.0902195876	-0.248277
C	-1.251658781	-0.7558578941	-0.1278731215	-0.234946
H	 0.8668023972	 1.6585752436	 0.3659876345	 0.238893
H	 0.2177682606	-3.5436600556	-1.3423119306	 0.168287
H	-3.3220351878	-2.4091372985	-0.3641054041	 0.095465
H	-2.1786056857	-0.2892964333	 0.1874184744	 0.152749
97.754	126.1453	189.3878	242.5839	355.2421	387.5853	437.2618	552.9333	600.6869	657.7719	708.1912	762.811	868.5866	869.0308	908.562	931.8229	954.8455	1016.5165	1040.4621	1085.0374	1178.6213	1270.7305	1343.7325	1381.5392	1421.4228	1630.8371	1680.4597	1721.2162	1800.6593	2913.6173	3204.7285	3205.7154	3483.7931
N=C1ON=CC(C=O)=C1	[NH]C1=C[C](C=NO1)C=O	
InChI=1S/C5H4N2O2/c6-5-1-4(3-8)2-7-9-5/h1-3,6H	InChI=1S/C5H4N2O2/c6-5-1-4(3-8)2-7-9-5/h1-3,6H
