23
gdb 60086	2.21051	1.14954	0.95705	2.7153	86.78	-0.2474	-0.0154	0.2321	1394.1105	0.203475	-388.303388	-388.29306	-388.292115	-388.338811	38.433	
C	-1.5348212216	-0.4099382177	-0.0892124376	-0.38913
C	-0.0269091924	-0.3477223128	 0.1901997645	 0.037552
C	 0.3844017853	-1.4473125681	 1.1781319381	-0.384738
C	 0.7493490944	-0.4125948886	-1.1431271504	-0.282271
C	 2.2532500191	-0.2110361332	-1.060470451	 0.259206
C	 3.1869531016	-1.3831522855	-0.7695323167	-0.294788
C	 3.1427790434	-0.8247361337	-2.1478263347	-0.317747
C	 2.7396944014	 1.1118043491	-0.5969934466	 0.120368
O	 2.0415036732	 2.0535249026	-0.3079974143	-0.273649
H	-1.8512532119	 0.3986318863	-0.7563620979	 0.113123
H	-1.8104195112	-1.3607412295	-0.562743231	 0.105519
H	-2.1108840388	-0.3240352162	 0.8379361929	 0.108984
H	 0.1915340004	 0.6239243373	 0.6457492904	 0.104852
H	 0.207187438	-2.4451239791	 0.7565187879	 0.10257
H	 1.4412299153	-1.3809386146	 1.4507443175	 0.114061
H	-0.1996832803	-1.3741393798	 2.1015398578	 0.110887
H	 0.5525281443	-1.3800206556	-1.6254154058	 0.085124
H	 0.3444445219	 0.3558978268	-1.812702095	 0.108805
H	 4.0673686524	-1.1943353911	-0.1633669967	 0.122691
H	 2.709934716	-2.3369168045	-0.5785664934	 0.131413
H	 2.6251321462	-1.3788212336	-2.9225718008	 0.129656
H	 3.989702695	-0.2450355918	-2.4996960881	 0.124245
H	 3.8527769282	 1.1900525634	-0.5459743391	 0.063267
44.8486	105.1556	143.5298	151.8889	224.4374	234.0661	269.3233	293.9264	305.5721	370.3797	373.0179	425.9908	478.7852	546.2758	780.7288	784.7753	830.5312	840.9708	878.3131	919.9227	932.523	948.799	967.8019	973.9723	1008.1836	1047.2514	1060.5687	1087.764	1137.4037	1143.5261	1193.3924	1196.6122	1244.5204	1306.8276	1326.5661	1355.8044	1378.8133	1384.8205	1401.9748	1422.4628	1443.8333	1465.3551	1471.8494	1488.3967	1493.5785	1497.6278	1505.0977	1510.8446	1811.1363	2837.7649	3009.4806	3019.1195	3023.5363	3051.0487	3061.9983	3083.1986	3094.1628	3099.5706	3109.7392	3134.3028	3136.219	3215.6895	3229.7735
CC(C)CC1(CC1)C=O	CC(C)CC1(CC1)C=O	
InChI=1S/C8H14O/c1-7(2)5-8(6-9)3-4-8/h6-7H,3-5H2,1-2H3	InChI=1S/C8H14O/c1-7(2)5-8(6-9)3-4-8/h6-7H,3-5H2,1-2H3
