16
gdb 35496	3.21919	1.455	1.22446	1.791	73.74	-0.2466	0.0123	0.2589	1023.7942	0.125184	-400.713415	-400.706019	-400.705075	-400.745796	28.413	
C	-0.6666222414	-1.1578093438	-0.6382374921	-0.452208
C	-0.3737660822	-0.0305062746	-0.3406739155	 0.34705
C	-0.0413227191	 1.3241571471	 0.0429469673	-0.203365
C	-0.0355961674	 1.6783698326	 1.5758937374	-0.262942
C	 1.3584317853	 2.3245603947	 1.4222278186	 0.076376
O	 2.4136004316	 1.6299588614	 2.1215225015	-0.226579
C	 2.9087278243	 0.7503000093	 1.2110092482	 0.11374
N	 2.4692322659	 0.7424477154	 0.0210587211	-0.25017
C	 1.4558427771	 1.7985833878	-0.0414613429	-0.018546
H	-0.9125386564	-2.1540861569	-0.9106892341	 0.196216
H	-0.6738680797	 2.0280130264	-0.5082953534	 0.106718
H	-0.8394361277	 2.3411643388	 1.9011279831	 0.115609
H	-0.0123752765	 0.7995826164	 2.2217106268	 0.127873
H	 1.4472104791	 3.3890865683	 1.637592201	 0.095207
H	 3.686830948	 0.1010947297	 1.5966868208	 0.145059
H	 1.6736427693	 2.4875500373	-0.860548428	 0.089963
50.841	137.5038	205.9563	296.8805	379.1547	484.8576	511.1694	570.23	621.1912	631.9763	685.5516	733.3886	791.8946	854.0789	872.2661	909.7147	924.6449	971.295	1010.0929	1029.9833	1067.3923	1090.4726	1105.2532	1129.6643	1201.1841	1241.3559	1255.0191	1274.483	1301.6464	1320.6488	1336.2251	1365.0095	1470.7681	1686.7703	2237.4934	3046.2222	3080.0704	3082.1343	3116.1675	3144.2517	3219.3599	3505.0948
C#CC1CC2OC=NC12	C#C[C@H]1C[C@H]2OC=N[C@@H]12	
InChI=1S/C7H7NO/c1-2-5-3-6-7(5)8-4-9-6/h1,4-7H,3H2	InChI=1S/C7H7NO/c1-2-5-3-6-7(5)8-4-9-6/h1,4-7H,3H2/t5-,6+,7-/m0/s1
