20
gdb 53554	4.19407	0.78599	0.7504	1.4769	87.87	-0.2383	0.0587	0.297	1613.4489	0.170321	-365.951153	-365.941625	-365.940681	-365.987983	34.134	
C	 0.0433066718	 1.5014275507	-0.2137267834	-0.495582
C	 0.0489389799	 0.0556124466	-0.040393264	 0.055952
C	 0.0665100584	-1.1403923719	 0.097063945	 0.068112
C	 0.0495559679	-2.5922029913	 0.2715864945	-0.448234
C	-1.3475659317	-3.1624295026	 0.2133787751	 0.36741
C	-2.4696183961	-2.9014398951	 1.233920533	-0.286032
C	-2.9864058635	-4.3601012291	 0.993088603	-0.235741
C	-1.8514784262	-4.5613970612	-0.0208152544	-0.098277
N	-1.9003283334	-3.5515619364	-1.0765480735	-0.346903
H	 0.7767929122	 1.8152113042	-0.9648715286	 0.147018
H	-0.9384842671	 1.8595502674	-0.5432754233	 0.145184
H	 0.2862745819	 2.0184652216	 0.7213711113	 0.14429
H	 0.651729652	-3.0740555048	-0.5074405433	 0.136832
H	 0.5082058746	-2.8518241561	 1.235528057	 0.121434
H	-2.1010765405	-2.7572628807	 2.2527064886	 0.107674
H	-3.1455819338	-2.0759679172	 0.9892326329	 0.099568
H	-2.8914105846	-4.9860620604	 1.8836214088	 0.107039
H	-4.000086432	-4.4738229605	 0.5937481692	 0.097496
H	-1.3148079807	-5.4816847888	-0.2245979774	 0.091625
H	-2.8400315289	-3.1917315344	-1.2375090604	 0.221136
12.2629	49.0282	70.9895	195.3348	206.9586	259.1343	318.9763	368.3899	380.9812	437.2666	477.1167	705.82	752.3873	757.8513	781.5161	850.2315	905.0751	923.1298	949.8852	954.9112	1032.1178	1051.8909	1053.6135	1061.3066	1089.7942	1121.9388	1162.7763	1183.1479	1192.3452	1224.5882	1235.2538	1255.6281	1278.9321	1316.4078	1330.8921	1415.3342	1437.9742	1458.0165	1479.2211	1479.4688	1479.7966	1500.9664	2373.2738	3012.487	3024.5419	3041.4901	3051.8307	3060.0077	3083.8393	3084.5851	3094.677	3111.9019	3170.4315	3454.5057
CC#CCC12CCC1N2	CC#CC[C@]12CC[C@H]1N2	
InChI=1S/C8H11N/c1-2-3-5-8-6-4-7(8)9-8/h7,9H,4-6H2,1H3	InChI=1S/C8H11N/c1-2-3-5-8-6-4-7(8)9-8/h7,9H,4-6H2,1H3/t7-,8+/m1/s1
