19
gdb 116819	2.16128	0.99466	0.72903	2.3055	77.93	-0.2472	0.0115	0.2587	1566.14	0.157112	-456.328762	-456.318296	-456.317352	-456.366535	34.839	
C	-0.4687300782	 0.0010098058	 0.501351016	-0.253208
O	 0.8537420139	-0.2121613794	 0.0152376481	-0.192375
C	 0.9591755556	-1.0385763061	-1.0373406209	 0.14614
N	 2.090720006	-1.3616808664	-1.4896205719	-0.226701
C	 2.117530519	-2.2636802844	-2.6215467471	-0.154994
C	 2.7999362054	-3.5784305072	-2.2433895817	-0.078932
O	 2.0067682934	-4.3275836116	-1.3267985899	-0.184651
C	 2.2621849818	-4.1717281268	-0.0122897629	 0.132311
N	 1.4997602079	-4.7027657153	 0.84353206	-0.453925
H	-1.1287669113	 0.3819823277	-0.2870740753	 0.128749
H	-0.8919885502	-0.9204075743	 0.9170973496	 0.14061
H	-0.3874618122	 0.7483240749	 1.2911618823	 0.147881
H	-0.0013519244	-1.3806318213	-1.4528270957	 0.084812
H	 1.1154935029	-2.4897493461	-3.0225956121	 0.09766
H	 2.7035138517	-1.8062967198	-3.4297822424	 0.108879
H	 2.9195607646	-4.2076982961	-3.1299422236	 0.116718
H	 3.7908805183	-3.3760461975	-1.8186127854	 0.11694
H	 3.161909407	-3.5777079779	 0.190794125	 0.098566
H	 1.8543230189	-4.5127664983	 1.778652878	 0.22552
29.4947	58.6116	74.3529	96.1845	135.8248	148.1449	205.9659	261.0834	317.2155	378.5706	454.8458	487.576	576.0724	619.6576	817.7693	880.9887	929.4979	986.5754	1013.712	1039.92	1050.4797	1069.645	1135.1354	1148.1006	1177.081	1182.9744	1248.6801	1272.1054	1286.8581	1339.2457	1379.8881	1398.3415	1416.4336	1423.7674	1484.3363	1486.5908	1494.5113	1496.5874	1501.5119	1738.5838	1768.1933	2967.2417	2999.1935	3021.8453	3028.0304	3041.495	3046.5264	3087.0112	3098.418	3148.5398	3514.9805
COC=NCCOC=N	COC=NCCO[CH][NH]	
InChI=1S/C5H10N2O2/c1-8-5-7-2-3-9-4-6/h4-6H,2-3H2,1H3	InChI=1S/C5H10N2O2/c1-8-5-7-2-3-9-4-6/h4-6H,2-3H2,1H3
