18
gdb 37410	3.53617	1.83115	1.71982	1.6447	72.71	-0.2283	0.0781	0.3065	852.8265	0.152039	-401.88421	-401.878489	-401.877545	-401.91393	25.474	
C	 0.0016186974	 1.4678927429	-0.174930781	-0.245407
C	 1.2788789377	 0.7142198768	-0.0236617268	-0.03046
C	 1.8766856485	 0.4256598008	 1.3594461242	-0.079362
C	 1.1018570393	 1.1814772556	 2.4671634697	-0.230471
C	 0.002591457	 0.1112117255	 2.6487096636	 0.039032
O	 0.8460087855	-1.0107061703	 3.0607030872	-0.293259
C	 1.2709331877	-1.014244172	 1.6826394094	 0.089216
C	-0.1387632708	-0.6133078873	 1.2362749836	-0.006766
N	-0.0362227146	 0.0062400905	-0.0837996035	-0.118637
H	-0.3930398141	 2.0601014693	 0.6419912394	 0.119238
H	-0.2609163893	 1.8499914125	-1.1585875479	 0.11655
H	 1.9205257059	 0.5967680042	-0.8940444896	 0.091667
H	 2.9609672145	 0.5177198386	 1.3967751021	 0.070759
H	 1.671260046	 1.2428221641	 3.3975129954	 0.110893
H	 0.7787312781	 2.1833136451	 2.1895869336	 0.102606
H	-0.8385934222	 0.2986930582	 3.3158141549	 0.081679
H	 1.8048508108	-1.908052117	 1.362620248	 0.087997
H	-0.8908706077	-1.4001470975	 1.2640260177	 0.094726
237.3877	358.963	467.755	507.6845	552.1926	596.9006	633.2705	746.8133	759.4749	790.2593	808.7035	856.9704	865.0898	893.5906	927.4007	936.3297	957.7252	973.7313	1005.1003	1037.975	1054.6122	1076.6391	1097.0358	1116.8605	1129.47	1153.9875	1160.1525	1190.9048	1207.5008	1233.4639	1257.8389	1278.1219	1300.7596	1307.244	1317.2843	1341.9615	1384.1606	1488.8102	1526.8518	3079.8696	3116.2633	3120.9922	3123.4205	3129.7819	3132.9027	3142.5113	3145.3332	3209.4727
C1C2C3CC4OC3C4N12	C1[C@H]2[C@H]3C[C@@H]4O[C@H]3[C@@H]4N12	
InChI=1S/C7H9NO/c1-3-4-2-8(4)6-5(1)9-7(3)6/h3-7H,1-2H2	InChI=1S/C7H9NO/c1-3-4-2-8(4)6-5(1)9-7(3)6/h3-7H,1-2H2/t3-,4+,5+,6-,7-,8?/m1/s1
