16
gdb 54991	3.65315	1.0816	0.99165	4.651	66.3	-0.2513	-0.0029	0.2484	1206.7191	0.122959	-475.002769	-474.994168	-474.993224	-475.036662	31.008	
N	 0.3889310036	 1.1049366532	-0.8403154231	-0.537949
C	-0.0666960218	 0.4175532348	 0.2456136763	 0.431601
O	 0.5232376033	 0.3710299722	 1.3063103377	-0.361847
C	-1.408109684	-0.250439643	 0.0458222116	-0.180761
O	-1.5368458574	-1.5459221454	 0.6543841528	-0.252338
C	-2.2575543349	-0.484881503	 1.2207667706	 0.376486
C	-2.1422628913	-0.0036235877	 2.659847171	-0.143624
O	-3.5892460327	 0.0884610452	 2.7396257209	-0.277998
C	-3.7703590133	-0.4380272578	 1.4098411712	-0.157163
H	 1.2995055216	 1.5315994417	-0.7790282497	 0.268572
H	-0.0316591441	 1.0082954722	-1.7481016034	 0.264326
H	-1.875748303	-0.1658277071	-0.9362408833	 0.095291
H	-1.7279218613	-0.7491924388	 3.347421834	 0.123963
H	-1.6496630246	 0.9589596272	 2.8200917433	 0.126434
H	-4.3320281347	 0.245873745	 0.7616846196	 0.108194
H	-4.2501126854	-1.4253925985	 1.4053784506	 0.11681
55.3552	111.9353	139.8455	170.6502	252.1343	310.3856	346.5468	411.8282	420.4477	546.3214	592.3423	648.0085	771.3003	829.4873	862.697	898.8517	939.3316	957.248	1013.1624	1026.8022	1055.1042	1095.8314	1119.3177	1137.8359	1164.2229	1181.207	1278.6254	1297.1605	1336.6276	1396.573	1496.4042	1511.1849	1526.7176	1620.2382	1802.0295	3011.5962	3045.7432	3058.5335	3098.0262	3102.9453	3599.5078	3732.8568
NC(=O)C1OC11COC1	NC(=O)[C@H]1OC21COC2	
InChI=1S/C5H7NO3/c6-4(7)3-5(9-3)1-8-2-5/h3H,1-2H2,(H2,6,7)	InChI=1S/C5H7NO3/c6-4(7)3-5(9-3)1-8-2-5/h3H,1-2H2,(H2,6,7)/t3-/m1/s1
