20
gdb 116371	3.2	1.12401	0.88842	1.8854	77.22	-0.2343	0.0169	0.2511	1323.1877	0.171558	-440.276439	-440.267396	-440.266452	-440.310909	32.78	
C	-0.0510845464	 1.3828704323	 0.1201567987	-0.242926
O	 0.00294691	-0.0231204995	 0.0220199344	-0.242836
C	 0.6661091054	-0.5177595659	-1.1333156452	 0.100356
C	 1.2029407792	-1.9013094072	-0.7875131233	-0.223278
C	 2.1666599795	-2.4413801726	-1.832211708	-0.076251
O	 1.5983253106	-2.8140437496	-3.0916586684	-0.227496
C	 0.9496502208	-1.9098520146	-3.8780857585	 0.121396
N	 0.1887123968	-0.9383877541	-3.6260772116	-0.251291
C	-0.311599943	-0.5548260405	-2.3196409101	-0.165218
H	 0.9565023766	 1.826987513	 0.1215819625	 0.105779
H	-0.6289803292	 1.8459947138	-0.6922129126	 0.112241
H	-0.5401552393	 1.6183250386	 1.0686919929	 0.128966
H	 1.5144898279	 0.142183151	-1.3847022453	 0.065805
H	 1.742809304	-1.8347857101	 0.1637915069	 0.110918
H	 0.370897887	-2.600077107	-0.6402330441	 0.113661
H	 2.9644295551	-1.7078163441	-2.0172156349	 0.106972
H	 2.6341350946	-3.3608714851	-1.4724157576	 0.120355
H	 1.1351231326	-2.1693126895	-4.9218984245	 0.116393
H	-1.1282372003	-1.2387727215	-2.0459666173	 0.120379
H	-0.7665320219	 0.4347288325	-2.4282333638	 0.106074
66.1845	85.8176	99.7333	180.6061	231.4364	295.1747	317.7083	375.5424	428.845	461.3547	515.8087	536.028	745.8911	823.0627	874.4959	928.3152	944.6497	970.0595	983.7719	1025.5205	1061.2676	1116.2819	1129.5209	1152.3498	1168.3066	1183.5062	1215.1942	1230.4864	1283.9146	1300.6029	1347.6333	1353.1094	1377.579	1410.0552	1427.4816	1438.6934	1472.5003	1480.847	1488.692	1494.8559	1498.7208	1510.5253	1760.786	2952.7592	2980.2555	3008.2193	3009.9362	3030.5293	3038.7573	3069.3882	3085.2034	3102.0389	3113.164	3122.2905
COC1CCOC=NC1	CO[C@H]1CCOC=NC1	
InChI=1S/C6H11NO2/c1-8-6-2-3-9-5-7-4-6/h5-6H,2-4H2,1H3	InChI=1S/C6H11NO2/c1-8-6-2-3-9-5-7-4-6/h5-6H,2-4H2,1H3/t6-/m0/s1
