21
gdb 105427	2.25795	1.40445	1.13638	0.5721	88.93	-0.2411	0.0245	0.2656	1205.8207	0.181599	-349.938538	-349.929226	-349.928281	-349.972325	35.955	
C	 0.0892408981	 1.4138434005	 0.2066939013	-0.399219
C	 0.1808436978	-0.0835590105	-0.0960464597	-0.210669
C	 0.7222417673	-0.4586348054	-1.5053654808	 0.113965
C	 2.2416951616	-0.0806570109	-1.6344699714	-0.29413
C	 2.9602680951	-1.3720478171	-1.3381864021	-0.062265
C	 2.1391237258	-2.418873805	-1.3426216298	-0.062754
C	 0.716538021	-2.0247315295	-1.6432125047	-0.297649
C	-0.09106419	 0.1711175549	-2.5423430557	 0.300543
C	-0.765710096	 0.6819412819	-3.3976388805	-0.472629
H	 1.067195943	 1.9046460446	 0.1795287141	 0.115967
H	-0.55908262	 1.9196732371	-0.5144793951	 0.132036
H	-0.3265083697	 1.5725387624	 1.2065324631	 0.112045
H	 0.8228974546	-0.5800518462	 0.6419554241	 0.101495
H	-0.8163775546	-0.5269216832	 0.0057302011	 0.102174
H	 2.4732336411	 0.276729256	-2.6453559058	 0.117405
H	 2.517009444	 0.7299896197	-0.9522061328	 0.107825
H	 4.031549486	-1.4137362407	-1.1745941768	 0.092208
H	 2.4341766825	-3.450424643	-1.1849026183	 0.092652
H	-0.012638118	-2.4781018795	-0.9619416712	 0.105243
H	 0.427849274	-2.3308428163	-2.656276793	 0.116552
H	-1.3567347635	 1.1316144503	-4.156453246	 0.189203
78.6732	119.29	160.0776	168.7976	234.0739	259.8645	354.8022	371.0691	414.9536	504.413	534.9254	587.2441	617.9677	622.9477	684.8445	757.7748	773.7414	799.8143	874.7723	952.4681	957.0365	976.8845	984.0087	1000.5896	1002.3223	1035.5954	1090.0007	1128.0975	1132.0142	1169.5892	1188.3629	1264.7519	1295.5712	1308.9263	1345.7971	1357.1345	1368.9865	1412.6715	1477.3584	1487.2753	1489.9686	1500.9287	1506.5669	1693.9467	2227.659	3025.5941	3028.7206	3032.5105	3040.9945	3059.3657	3066.4933	3073.3084	3104.7876	3117.878	3181.0528	3206.4817	3501.0773
CCC1(CC=CC1)C#C	CC[C@]1(CC=CC1)C#C	
InChI=1S/C9H12/c1-3-9(4-2)7-5-6-8-9/h1,5-6H,4,7-8H2,2H3	InChI=1S/C9H12/c1-3-9(4-2)7-5-6-8-9/h1,5-6H,4,7-8H2,2H3
