18
gdb 91618	2.231	2.02937	1.4703	3.5156	70.23	-0.2136	-0.0121	0.2015	946.6633	0.149893	-439.091166	-439.083831	-439.082887	-439.122844	29.406	
O	-0.0344255992	 1.4383450992	-0.0487497823	-0.424134
C	 0.0164603164	 0.0231546748	-0.0108749575	 0.113253
C	 0.6059615343	-0.5689105835	 1.3189678044	-0.21434
N	-0.5019679805	-1.3100311251	 1.9689340679	-0.091913
C	-1.1799192834	-1.8759383708	 0.7701651152	-0.205503
C	-1.4228391759	-0.5431030768	 0.0183782326	-0.159157
C	-2.1551783217	 0.2178326754	 1.1304515809	 0.43722
O	-3.0618689329	 0.9977178031	 1.0378286442	-0.322606
C	-1.5048790357	-0.3187999466	 2.4263401745	-0.293509
H	 0.8653085227	 1.7745241279	-0.1052453655	 0.287961
H	 0.553016477	-0.3663000337	-0.8882975826	 0.07381
H	 1.4232071175	-1.2678926033	 1.1158944484	 0.104586
H	 0.9806160451	 0.2231152013	 1.9723141557	 0.108315
H	-0.5195115449	-2.5682203476	 0.2404098816	 0.11231
H	-2.097305123	-2.4021338548	 1.0468504994	 0.118129
H	-1.9427423405	-0.545960069	-0.9372712698	 0.090319
H	-2.2640095348	-0.8109973673	 3.0449368637	 0.130899
H	-1.0548005104	 0.4813990669	 3.0184178693	 0.134361
105.2203	140.1747	279.2154	347.1225	411.8266	441.4532	452.8173	481.3109	551.3074	600.3438	687.2164	776.0301	800.4616	829.9718	858.625	925.8651	943.6837	964.2988	986.595	1009.6417	1032.0929	1071.0687	1101.7152	1133.2749	1174.6217	1191.7605	1206.9185	1266.371	1272.1465	1277.8315	1299.7585	1310.4994	1321.0044	1345.6014	1419.1427	1454.9553	1489.9435	1513.8521	1869.7015	2987.4369	3046.6237	3050.7932	3060.6705	3106.1787	3113.2503	3113.9668	3147.4764	3823.4301
OC1CN2CC1C(=O)C2	O[C@H]1CN2C[C@H]1C(=O)C2	
InChI=1S/C6H9NO2/c8-5-2-7-1-4(5)6(9)3-7/h4-5,8H,1-3H2	InChI=1S/C6H9NO2/c8-5-2-7-1-4(5)6(9)3-7/h4-5,8H,1-3H2/t4-,5+/m1/s1
