18
gdb 102133	3.26835	0.77424	0.64504	4.705	82.25	-0.2572	0.015	0.2722	1702.998	0.14529	-401.938021	-401.927375	-401.926431	-401.976204	36.065	
C	-0.0351219222	 1.4513340344	-0.0152528443	-0.499504
C	-0.0271372977	-0.0044751577	-0.0008294512	 0.118583
C	-0.0163013351	-1.2084894356	 0.0285037282	 0.028194
C	-0.038378692	-2.6675500933	 0.0277983558	-0.204333
C	-1.4895407387	-3.2018823854	-0.1264110508	-0.069498
O	-1.6379704958	-4.5363931139	 0.2976942052	-0.416305
C	 0.9186586102	-3.1797568164	-1.0895351469	-0.338437
C	 0.9364877449	-4.6339530191	-1.2360332235	 0.254871
N	 0.924744885	-5.7835825041	-1.3626818142	-0.316274
H	 0.6548299049	 1.8447657883	-0.7696049901	 0.151682
H	-1.0334057731	 1.8400750918	-0.2434971827	 0.153673
H	 0.2664204154	 1.8587200674	 0.9557659037	 0.154336
H	 0.3254532388	-3.0464243495	 0.9908155637	 0.13022
H	-2.1386280403	-2.6016114904	 0.5163747951	 0.125731
H	-1.8247179431	-3.0486684772	-1.1644599825	 0.097452
H	-1.2064491766	-5.124841037	-0.3315147856	 0.301045
H	 0.6182373955	-2.7413950881	-2.0476599827	 0.163166
H	 1.9371849998	-2.8347143939	-0.887625197	 0.165398
11.6083	62.0594	79.8087	101.2588	153.018	180.1905	263.1577	293.2957	346.6964	385.0498	401.3007	416.9894	471.7569	512.8974	542.3655	817.0688	855.4085	886.7999	955.5986	1050.3287	1052.0132	1059.961	1065.7389	1088.2353	1169.6254	1185.1533	1266.5237	1277.1146	1310.9951	1352.9325	1398.0182	1414.7854	1423.0917	1461.6599	1477.0313	1477.6857	1500.5923	2351.0264	2369.8281	2982.8533	3029.7363	3036.3511	3054.0772	3091.8338	3092.4263	3095.0709	3097.8522	3805.9166
CC#CC(CO)CC#N	CC#C[C@@H](CO)CC#N	
InChI=1S/C7H9NO/c1-2-3-7(6-9)4-5-8/h7,9H,4,6H2,1H3	InChI=1S/C7H9NO/c1-2-3-7(6-9)4-5-8/h7,9H,4,6H2,1H3/t7-/m1/s1
