18
gdb 126453	3.27113	1.24991	0.91986	3.962	75.63	-0.2161	0.0135	0.2296	1265.1812	0.147189	-435.274074	-435.264767	-435.263823	-435.30893	32.889	
C	-0.0922448244	 1.5178283188	-0.0688780768	-0.375876
C	 0.0064219601	-0.0049902002	 0.0482921258	-0.307957
C	 0.73624491	-0.4630030488	 1.2690707082	 0.411378
N	 1.2418195425	 0.3344199039	 2.1513021961	-0.19973
O	 1.8348594704	-0.5260954811	 3.1272848605	-0.250254
C	 1.6480831134	-1.8292552772	 2.7683014008	 0.479105
N	 2.0227044429	-2.8800765781	 3.3681941686	-0.618173
N	 0.9418690326	-1.7854639565	 1.5739056728	-0.150124
C	 0.5319327009	-2.964537857	 0.8410027168	-0.350392
H	 0.9004049248	 1.972156251	-0.1063910127	 0.143647
H	-0.6346418182	 1.7880155139	-0.9783731921	 0.116431
H	-0.6169166874	 1.9427977792	 0.7897802472	 0.14365
H	-0.9954813357	-0.4544780006	 0.0570660442	 0.130516
H	 0.5103183489	-0.4253400292	-0.8322294533	 0.130515
H	 2.5233729083	-2.6551094372	 4.2233273523	 0.232389
H	 0.8851692856	-3.824945402	 1.4110245972	 0.18771
H	-0.5574519632	-3.015888974	 0.7482959116	 0.138583
H	 0.9779275086	-2.9861863349	-0.1583056473	 0.138583
55.7296	71.5921	129.0205	175.7273	175.8287	224.8338	285.4516	328.0446	366.7703	541.4631	623.5573	624.2127	721.7266	724.1872	743.8372	789.5785	805.8041	902.2702	969.8836	1015.1452	1043.9414	1091.9259	1114.2789	1158.5704	1192.4427	1234.8837	1288.5429	1335.2615	1379.8967	1418.9752	1436.5778	1470.3286	1492.3906	1496.2086	1497.2559	1505.7146	1513.9535	1659.4977	1774.5217	3021.096	3037.3617	3047.3349	3057.5528	3097.9075	3131.1914	3136.6509	3152.5514	3546.9094
CCC1=NOC(=N)N1C	CCC1=NO[C@H]([NH])N1C	
InChI=1S/C5H9N3O/c1-3-4-7-9-5(6)8(4)2/h6H,3H2,1-2H3	InChI=1S/C5H10N3O/c1-3-4-7-9-5(6)8(4)2/h5-6H,3H2,1-2H3/t5-/m1/s1
