17
gdb 78411	3.27314	1.44102	1.2856	3.7407	73.74	-0.2301	0.0279	0.258	1035.9566	0.136225	-417.933126	-417.925804	-417.92486	-417.964735	29.02	
C	-0.199162112	 1.2600215391	-0.0237136652	-0.325266
N	 0.0750690793	-0.1670678309	 0.1215784017	-0.085195
C	 1.4757323331	-0.522670801	-0.1431276008	-0.067322
C	 0.9372256718	-0.493468247	 1.2576882464	-0.038719
C	 1.0210632846	-2.0416821049	 1.3581367975	-0.208558
C	 1.5897442341	-2.0672568465	-0.0757641237	 0.089409
O	 0.4343273504	-2.8209444887	-0.5405916358	-0.263946
C	-0.1263228202	-2.8209993138	 0.7330238086	 0.456392
N	-1.177789545	-3.35148594	 1.1567788686	-0.558267
H	 0.636662123	 1.9109967386	 0.2831869633	 0.099817
H	-0.4329562489	 1.4709237793	-1.0713011954	 0.132548
H	-1.0735509768	 1.5130793302	 0.582656469	 0.135315
H	 2.131275805	 0.1651912019	-0.6630830938	 0.097507
H	 1.1057621941	 0.2177504574	 2.0563504592	 0.10277
H	 1.5363235898	-2.4636465844	 2.2173485575	 0.107606
H	 2.5362267778	-2.5229583301	-0.3621527649	 0.09797
H	-1.6880446101	-3.8170769593	 0.403942688	 0.227941
116.651	201.5762	234.8853	285.7543	308.4059	382.3361	439.7497	566.1511	652.3593	722.4919	762.9633	805.3693	834.1542	856.1859	865.3886	886.1183	927.3854	938.4647	971.94	995.0237	1008.3314	1021.1704	1112.4629	1123.1311	1149.2061	1176.8234	1187.7612	1215.5265	1234.0652	1261.1713	1292.3373	1323.8607	1361.6548	1453.9165	1493.7855	1499.141	1826.2421	2963.2465	3076.1292	3115.0488	3131.5557	3155.0531	3186.3794	3201.2442	3473.3789
CN1C2C1C1C2OC1=N	CN1[C@H]2[C@@H]1[C@@H]1[C@H]2O[C]1[NH]	
InChI=1S/C6H8N2O/c1-8-3-2-5(4(3)8)9-6(2)7/h2-5,7H,1H3	InChI=1S/C6H8N2O/c1-8-3-2-5(4(3)8)9-6(2)7/h2-5,7H,1H3/t2-,3+,4+,5-,8?/m1/s1
