21
gdb 5943	4.16035	1.12148	1.11321	4.0448	78.52	-0.312	0.0319	0.3439	1187.0902	0.186983	-329.160352	-329.150597	-329.149653	-329.194338	35.991	
C	 0.1694181793	 1.5392920403	 0.0086247692	-0.40722
C	-0.0386474135	 0.0211381393	 0.0024611626	-0.182724
C	-1.5077136051	-0.472450358	 0.0139835788	 0.256401
C	-2.2396533761	-0.0071967531	 1.284707952	-0.418881
C	-2.2639759901	 0.0063241142	-1.2373244225	-0.418876
C	-1.435500962	-2.0296870004	 0.0049374203	-0.35625
C	-2.7409312208	-2.6863315649	 0.0140003324	 0.269412
N	-3.7798694805	-3.1933465756	 0.0205755186	-0.323957
H	 1.238961674	 1.7705872948	-0.0003458583	 0.118941
H	-0.2748986258	 2.0176538443	-0.8690871711	 0.122801
H	-0.2580046281	 2.0081681884	 0.8997420531	 0.122799
H	 0.4591561344	-0.3991147835	-0.8818768695	 0.093779
H	 0.4760866989	-0.4085612711	 0.8724497965	 0.093778
H	-2.340949126	 1.0811358919	 1.3040650608	 0.12044
H	-3.2460191914	-0.433450563	 1.3356075743	 0.138997
H	-1.6988315622	-0.3105919457	 2.1883124198	 0.111063
H	-1.7406818968	-0.2872485479	-2.1543946807	 0.111063
H	-3.2711581365	-0.4195174829	-1.2734022276	 0.139011
H	-2.3655710004	 1.0947848963	-1.2430160965	 0.120435
H	-0.8886454617	-2.3705656928	-0.8823168445	 0.144508
H	-0.8718159695	-2.3800228606	 0.8778500522	 0.144481
82.6046	94.2845	135.6655	220.5311	249.7483	277.837	283.6287	325.4538	342.5232	389.3622	402.1766	407.3934	431.6771	585.8084	739.4096	788.398	857.8905	892.2012	951.283	957.9397	960.8795	1006.3075	1034.5772	1081.0182	1085.2512	1191.6785	1206.6157	1246.5531	1269.6739	1333.0182	1351.0023	1376.8527	1406.2701	1413.9734	1429.9754	1459.9192	1482.8547	1485.7882	1491.8808	1509.7158	1510.9997	1512.883	1517.3038	2356.4699	3007.3658	3032.5315	3033.164	3038.7698	3041.1911	3045.2434	3074.2565	3101.8319	3103.8076	3108.4791	3112.1468	3119.9428	3120.0704
CCC(C)(C)CC#N	CCC(C)(C)CC#N	
InChI=1S/C7H13N/c1-4-7(2,3)5-6-8/h4-5H2,1-3H3	InChI=1S/C7H13N/c1-4-7(2,3)5-6-8/h4-5H2,1-3H3
