16
gdb 20106	5.2301	1.48936	1.36176	2.0005	64.55	-0.2356	0.0665	0.3021	915.9478	0.13034	-383.663593	-383.656689	-383.655745	-383.694983	26.069	
C	 0.4604221579	 1.4763232518	 0.1000247584	-0.174131
O	 1.0646983449	 0.2775060602	-0.3900934046	-0.231861
C	-0.2911815034	 0.2109990616	 0.0590692749	-0.061733
C	-0.5463888457	-0.604818887	 1.2713861764	 0.285588
C	 0.517081516	-0.9662502697	 2.2877688827	-0.357147
C	-0.236257712	-2.054997102	 1.5894248947	 0.060901
O	-1.5076031683	-2.2761322737	 2.2044278887	-0.285725
C	-1.9209546468	-0.9284379436	 1.8570522744	-0.141418
H	 0.8438702874	 1.8321904266	 1.0546682379	 0.116878
H	 0.2723098316	 2.2433686906	-0.6495704558	 0.117856
H	-1.017223633	 0.082798905	-0.7464510271	 0.093711
H	 1.5272324509	-0.8029818591	 1.9257887016	 0.1352
H	 0.3562685742	-0.7994533776	 3.3496906699	 0.11272
H	 0.1998312097	-2.8596187736	 1.0090574817	 0.113918
H	-2.2530520533	-0.3522326134	 2.728775763	 0.107049
H	-2.7186782201	-0.9548668562	 1.1046390332	 0.108196
75.3659	175.1115	198.8592	316.4963	367.9171	456.2612	488.5296	654.8528	762.0294	849.3917	853.9487	871.5063	924.5717	934.8687	987.6715	997.2437	1006.2726	1042.9634	1064.0104	1085.7254	1099.528	1121.1534	1152.979	1159.3975	1172.4921	1214.9246	1268.6967	1282.2478	1318.0604	1393.5471	1445.082	1485.2769	1514.4609	1521.2731	3016.8664	3066.4433	3084.5045	3089.1546	3113.7463	3177.6882	3185.877	3215.6122
C1OC1C12CC1OC2	C1O[C@H]1[C@]12C[C@H]1OC2	
InChI=1S/C6H8O2/c1-4-6(1,3-8-4)5-2-7-5/h4-5H,1-3H2	InChI=1S/C6H8O2/c1-4-6(1,3-8-4)5-2-7-5/h4-5H,1-3H2/t4-,5-,6+/m1/s1
