18
gdb 23294	2.56811	1.42892	1.21094	1.5069	75.31	-0.245	0.0115	0.2566	1088.3687	0.148613	-439.022895	-439.014987	-439.014042	-439.055237	31.305	
O	-0.1239334625	 1.3364045284	 0.0949167957	-0.397474
N	 0.023937706	-0.0701973923	 0.09670608	-0.314968
C	-1.100584333	-0.646562654	 0.0888395995	 0.464031
C	-2.5855167037	-0.3193830841	 0.0034236667	-0.117621
C	-2.6454212098	-1.585893461	-0.9196204708	-0.245536
C	-1.5035678658	-2.1072722609	 0.0161202313	-0.138091
C	-2.2433907801	-2.2448930599	 1.3728136826	 0.156089
O	-1.3792949527	-2.3701176252	 2.4792008895	-0.443327
C	-3.085567651	-0.9140978404	 1.3416280654	-0.25878
H	 0.7925087112	 1.6320119972	 0.0714333307	 0.30589
H	-2.9483117403	 0.6569839012	-0.3065344019	 0.091886
H	-3.5823695976	-2.1505119661	-0.9220902259	 0.101765
H	-2.3030927338	-1.3956256429	-1.9376499075	 0.118008
H	-0.8130775303	-2.9003642267	-0.2612163677	 0.086397
H	-2.8771966365	-3.1349942902	 1.3952396326	 0.090268
H	-0.71535369	-1.6722008278	 2.4155828022	 0.284083
H	-2.8458408881	-0.292462072	 2.2078443981	 0.112899
H	-4.164772932	-1.0914011535	 1.3317654093	 0.104481
88.3601	159.7939	225.01	280.4257	352.3972	385.6918	419.5317	435.1133	477.1129	514.2965	660.4186	722.7225	741.5995	825.3175	836.9934	853.5225	903.6065	938.6052	959.0148	974.8833	1018.3261	1040.9764	1064.6511	1079.0788	1128.4677	1142.5142	1167.9599	1193.356	1222.9626	1244.2342	1251.6653	1304.3471	1310.3282	1321.1554	1406.8838	1437.7654	1489.1756	1506.2323	1799.333	3057.9662	3059.3336	3080.297	3112.7644	3134.1429	3152.9975	3158.5327	3775.3397	3818.4115
ON=C1C2CC1C(O)C2	ON=C1[C@H]2C[C@@H]1[C@@H](O)C2	
InChI=1S/C6H9NO2/c8-5-2-3-1-4(5)6(3)7-9/h3-5,8-9H,1-2H2	InChI=1S/C6H9NO2/c8-5-2-3-1-4(5)6(3)7-9/h3-5,8-9H,1-2H2/t3-,4+,5-/m0/s1
