20
gdb 52101	4.88027	0.7776	0.74215	3.5307	83.08	-0.2558	0.0253	0.2811	1578.1135	0.170829	-403.11412	-403.105067	-403.104122	-403.149866	32.723	
N	 0.0244166216	 1.2137363052	 0.4969612004	-0.440373
C	-0.0330224367	 0.0241489641	 0.0767326632	 0.13648
O	-1.0973223866	-0.745134894	 0.364128513	-0.184518
C	-1.0253619453	-2.122285027	-0.0388988751	-0.208174
C	-2.4041564504	-2.6881886549	-0.0613450886	 0.383766
C	-3.0938567011	-3.1780727633	 1.1831223539	-0.308848
C	-2.8488124451	-4.1516668879	 0.0651139475	-0.110471
C	-3.8889500373	-3.9496911053	-1.0442342376	-0.218891
C	-3.4424976631	-2.4549653521	-1.1693728997	-0.28572
H	 0.8822216067	 1.653768822	 0.1702992646	 0.226316
H	 0.7233485227	-0.4831457067	-0.5402392756	 0.079242
H	-0.5586702669	-2.1868647939	-1.0323233053	 0.101433
H	-0.3947583703	-2.6770384335	 0.6696928766	 0.106027
H	-2.4536716224	-3.2907834281	 2.0524709795	 0.114419
H	-4.1036669228	-2.8466674424	 1.4140634291	 0.110241
H	-2.2378352052	-5.0359668114	 0.2055968997	 0.086635
H	-3.6732180992	-4.5224648809	-1.9486526912	 0.104226
H	-4.9291992013	-4.1330557704	-0.7568543726	 0.100342
H	-4.1954127924	-1.6887624	-0.96339741	 0.10645
H	-2.9860899649	-2.2406555595	-2.1393033318	 0.101419
22.6616	58.5224	94.7875	142.3221	225.8571	314.569	327.8455	359.9066	433.3292	628.0134	682.5316	744.4139	784.5705	821.2963	849.7366	897.2437	938.5077	943.7183	961.611	972.5668	1003.7688	1033.8537	1041.1565	1045.5307	1085.0617	1112.7396	1128.2964	1154.2539	1212.3468	1223.1956	1243.352	1269.2354	1279.5401	1298.6666	1334.874	1381.9218	1417.3493	1435.3518	1482.1868	1487.2373	1502.3709	1513.8076	1746.8272	2988.0807	3010.2252	3034.188	3048.6021	3056.7465	3095.941	3109.3037	3114.6041	3174.6222	3200.0398	3515.7696
N=COCC12CC1CC2	[NH][CH]OC[C@]12C[C@H]1CC2	
InChI=1S/C7H11NO/c8-5-9-4-7-2-1-6(7)3-7/h5-6,8H,1-4H2	InChI=1S/C7H11NO/c8-5-9-4-7-2-1-6(7)3-7/h5-6,8H,1-4H2/t6-,7+/m1/s1
