17
gdb 65432	4.44901	0.80036	0.7533	2.14	76.84	-0.2594	-0.04	0.2194	1498.9349	0.13125	-421.784198	-421.774341	-421.773397	-421.819807	34.7	
C	 0.1014835041	 1.5656595575	-0.1888458024	-0.47133
C	-0.0260933084	 0.087529882	 0.0751802841	 0.26754
O	 1.1699092811	-0.721824999	 0.0715918968	-0.2732
C	 0.4697229398	-0.5968572166	 1.296876144	 0.015776
C	 1.1489585386	 0.1397864622	 2.4425871322	-0.390911
C	 1.9790187624	-0.7522127489	 3.2448887633	 0.293037
C	 2.6482999094	-1.5065984598	 3.8973843554	-0.425816
C	-1.1677312536	-0.6083274272	-0.6113084871	 0.125801
O	-2.0829443931	-0.0389730789	-1.1471826633	-0.250466
H	 0.9502896459	 2.0019119143	 0.3378706507	 0.12833
H	 0.2327721838	 1.7415193786	-1.2602864439	 0.14406
H	-0.8152286254	 2.0774901159	 0.1159995061	 0.145828
H	-0.0431844999	-1.508731986	 1.6095217494	 0.107964
H	 1.7575764952	 0.9569682079	 2.0450282711	 0.146668
H	 0.3752156215	 0.5936517889	 3.0760810093	 0.144275
H	 3.249577133	-2.1643186025	 4.4749360006	 0.203039
H	-1.0859730943	-1.7176729383	-0.5850708862	 0.089405
43.5178	85.2587	98.4082	117.074	215.1694	250.6653	269.8402	330.7856	351.4565	428.6018	443.2527	521.2221	592.7364	626.4764	654.6473	749.4747	819.3984	871.6471	926.3247	966.0551	996.4119	1038.0669	1088.0015	1108.955	1133.6814	1235.6146	1270.4919	1319.0541	1338.2238	1402.2227	1419.7803	1449.629	1459.0648	1480.916	1497.735	1827.9534	2243.9586	2894.9195	3026.4622	3058.2377	3082.6597	3096.8413	3122.0018	3153.1851	3505.8664
CC1(OC1CC#C)C=O	C[C@]1(O[C@H]1CC#C)C=O	
InChI=1S/C7H8O2/c1-3-4-6-7(2,5-8)9-6/h1,5-6H,4H2,2H3	InChI=1S/C7H8O2/c1-3-4-6-7(2,5-8)9-6/h1,5-6H,4H2,2H3/t6-,7-/m0/s1
