19
gdb 81393	4.25313	1.13037	1.08553	1.9063	81.49	-0.243	0.0354	0.2784	1185.2165	0.159129	-385.83086	-385.822758	-385.821814	-385.863171	32.164	
C	-0.2035638507	 1.5321735133	-0.0006241393	-0.4423
C	 0.0211701254	 0.0262026427	 0.0163536616	 0.037777
C	 1.1556496015	-0.5883379526	-0.8525040781	 0.098227
C	 2.158360841	-0.1900329546	 0.2536732934	-0.25474
C	 0.9355575627	-0.5677293226	 1.1465917078	-0.074112
C	 0.8093695721	-2.0693015924	 0.8023363944	-0.096101
O	 0.9786545286	-2.0033102065	-0.6431575207	-0.286703
C	 1.8000710164	-2.9400274803	 1.4229227941	 0.335453
C	 2.6016628066	-3.6565988917	 1.9602159308	-0.433806
H	 0.7150170266	 2.1094166122	 0.1326917926	 0.12048
H	-0.6534308286	 1.8410668767	-0.9504861829	 0.12192
H	-0.8938238636	 1.823815865	 0.7983182797	 0.121185
H	-0.9366550597	-0.4899747298	-0.1128332607	 0.074816
H	 1.2934755812	-0.3954797614	-1.9157183467	 0.078644
H	 3.0627026862	-0.7937207376	 0.3441988965	 0.116171
H	 2.3980766971	 0.8714858476	 0.280392238	 0.10525
H	 0.8489355444	-0.2923481143	 2.1968417398	 0.079629
H	-0.1960568251	-2.4497214161	 1.0234672571	 0.102341
H	 3.3116884979	-4.2940678675	 2.4265112828	 0.195869
119.5365	134.0919	189.5244	261.8958	290.3524	341.2506	452.0218	462.4764	545.4556	551.9695	627.2458	658.1409	688.9243	792.8263	828.54	847.1927	888.5686	902.8244	936.4855	952.5466	1018.7187	1027.1486	1036.2813	1054.8909	1092.3572	1100.3645	1128.0729	1140.9903	1211.9798	1238.245	1253.3107	1259.2675	1278.9842	1310.1981	1364.7645	1391.797	1416.2726	1489.3738	1497.8338	1509.4074	2236.4569	3019.5176	3034.6673	3044.0578	3091.0268	3093.0834	3114.9527	3128.4229	3132.8095	3159.62	3502.8545
CC1C2CC1C(O2)C#C	C[C@H]1[C@H]2C[C@@H]1[C@@H](O2)C#C	
InChI=1S/C8H10O/c1-3-7-6-4-8(9-7)5(6)2/h1,5-8H,4H2,2H3	InChI=1S/C8H10O/c1-3-7-6-4-8(9-7)5(6)2/h1,5-8H,4H2,2H3/t5-,6+,7+,8-/m1/s1
