25
gdb 119704	2.86406	0.94621	0.84513	0.1883	93.55	-0.2381	0.0855	0.3236	1556.9228	0.228826	-352.340999	-352.330996	-352.330052	-352.375931	38.144	
C	-0.004169117	 1.5847142594	 0.0970710942	-0.379831
C	-0.0213216771	 0.0552209078	 0.1560775117	-0.155291
C	-1.4075541204	-0.5431816032	-0.1319717064	-0.304326
C	-1.4251270374	-2.0479364278	-0.1056509943	 0.372878
C	-0.8399724915	-2.9321544475	-1.224042188	-0.289296
C	-2.0471246499	-3.9109022877	-1.0721256727	-0.224994
C	-2.6050844382	-3.0253861306	 0.0476926152	-0.144311
C	-1.6049380542	-2.8446781747	 1.16375876	-0.037261
C	-0.6738231696	-3.9172727913	 1.6905533925	-0.419881
H	 0.9936181865	 1.9830375279	 0.3065860278	 0.109404
H	-0.3057784977	 1.9463601466	-0.8924798919	 0.112528
H	-0.6956594594	 2.0169300826	 0.8292729583	 0.112038
H	 0.7023496874	-0.3478561481	-0.5642824248	 0.097214
H	 0.3151174634	-0.2821917967	 1.1445975254	 0.096566
H	-2.1278278235	-0.1572055154	 0.6024180857	 0.089262
H	-1.7534632825	-0.1882019773	-1.1139262026	 0.087217
H	-0.8438416199	-2.4243812908	-2.1924380299	 0.097039
H	 0.1619529675	-3.3415824108	-1.0587551871	 0.091134
H	-2.6830617571	-3.9180902385	-1.9601273401	 0.099336
H	-1.8186942397	-4.9489844751	-0.8085997058	 0.093005
H	-3.6561136129	-2.7987488292	 0.1927226729	 0.075072
H	-2.0150935304	-2.2198414827	 1.9568850148	 0.076156
H	-0.265114641	-4.5450850512	 0.8947608658	 0.118943
H	 0.1734723761	-3.4727195947	 2.2247896149	 0.113474
H	-1.1974563217	-4.5769214712	 2.3918026444	 0.113926
72.7947	96.3563	109.4134	187.3401	242.4617	248.7989	257.0362	284.403	321.254	343.6089	445.4136	532.609	685.5275	721.4751	747.0731	760.0849	799.5214	870.8276	892.5291	906.4609	925.1627	956.8797	979.0184	991.2152	1029.5103	1046.9214	1064.7019	1075.5391	1115.6477	1126.6793	1145.9805	1170.3531	1218.9195	1229.8302	1240.497	1255.9247	1275.0115	1308.3236	1313.8644	1332.4872	1349.8839	1388.8885	1412.495	1414.5162	1463.3581	1476.523	1480.5726	1493.0256	1499.7093	1502.6237	1505.7353	1509.8553	1511.6444	2995.0052	3019.8457	3027.4754	3029.4542	3030.5953	3040.1399	3047.9885	3055.9896	3084.5277	3085.64	3094.0843	3099.7328	3103.8073	3106.4115	3123.0652	3162.8763
CCCC12CCC1C2C	CCC[C@]12CC[C@H]1[C@H]2C	
InChI=1S/C9H16/c1-3-5-9-6-4-8(9)7(9)2/h7-8H,3-6H2,1-2H3	InChI=1S/C9H16/c1-3-5-9-6-4-8(9)7(9)2/h7-8H,3-6H2,1-2H3/t7-,8+,9-/m1/s1
