19
gdb 84860	2.40168	1.78712	1.23816	0.6475	75.27	-0.2462	0.0088	0.255	1040.4887	0.160981	-423.01465	-423.006845	-423.005901	-423.046975	30.546	
O	 0.512693507	 0.8753840125	-0.9007688717	-0.434474
C	 0.073061342	-0.1791809604	-0.0487161439	 0.062401
C	 0.6886873286	-0.0990991399	 1.3254534045	-0.10259
C	 0.1460422356	-0.6825057456	 2.3934949596	-0.054391
C	-1.1314992052	-1.4763339041	 2.3092664281	-0.282604
C	-2.0867653671	-0.9317247982	 1.2516996887	 0.123264
O	-2.6890150274	 0.3138335119	 1.6781162661	-0.289492
C	-2.1799083591	 1.0166645086	 0.5313988064	-0.081012
C	-1.4608731177	-0.2441796214	 0.0056579512	-0.083563
H	 0.3085905568	 1.7082302931	-0.4613226616	 0.27923
H	 0.4380540709	-1.0875822607	-0.5479910351	 0.102064
H	 1.6328326275	 0.435645113	 1.3902865365	 0.093736
H	 0.6421817456	-0.6215515464	 3.3582854795	 0.093899
H	-0.9057003631	-2.5290934942	 2.0824828956	 0.111137
H	-1.6574154623	-1.4771447204	 3.2705885077	 0.119455
H	-2.8608186683	-1.6737777156	 1.0183909895	 0.072467
H	-2.9824247854	 1.4004607934	-0.1099663426	 0.10284
H	-1.5348089573	 1.8560393838	 0.8276527689	 0.084546
H	-1.845877391	-0.5997451894	-0.9510670773	 0.083089
97.5674	116.1601	232.171	288.3007	320.4905	349.3766	421.458	452.8176	536.5797	592.4495	707.012	745.3417	811.9981	848.7413	880.7118	910.5405	935.1639	980.4945	997.2439	1019.4256	1044.0857	1058.9523	1083.2097	1090.0774	1135.7228	1170.8813	1183.1622	1216.0868	1234.2716	1268.0586	1286.9463	1310.7475	1344.4437	1348.686	1372.0868	1390.477	1407.0383	1426.9649	1459.3533	1516.2898	1711.8444	2995.2891	2998.0851	3007.255	3020.9817	3043.6569	3065.3337	3098.5825	3152.484	3174.9568	3802.5728
OC1C=CCC2OCC12	O[C@H]1C=CC[C@H]2OC[C@@H]12	
InChI=1S/C7H10O2/c8-6-2-1-3-7-5(6)4-9-7/h1-2,5-8H,3-4H2	InChI=1S/C7H10O2/c8-6-2-1-3-7-5(6)4-9-7/h1-2,5-8H,3-4H2/t5-,6-,7+/m0/s1
