18
gdb 46399	4.07266	0.90418	0.78401	4.0931	72.51	-0.25	0.0094	0.2593	1426.8129	0.147753	-439.072032	-439.063625	-439.062681	-439.106223	30.355	
O	-1.242967616	 0.5741282273	 0.2712749419	-0.324389
C	-0.4518587257	 1.4173286052	-0.0028825648	 0.44802
O	-0.6617625655	 2.5682638002	-0.7211168734	-0.238639
C	 0.7256969352	 3.0001226931	-0.531450904	-0.090617
C	 1.0316979767	 1.7088867809	 0.2525533582	-0.193699
C	 1.4535172821	 1.7861491957	 1.7151193753	-0.164761
N	 2.8765671319	 2.07966312	 1.8280221199	-0.066354
C	 3.2506056372	 3.4836680222	 1.9895095673	-0.224743
C	 3.3385873861	 2.5360336423	 3.1336911731	-0.220109
H	 1.2281771869	 3.1224793902	-1.4923620966	 0.129416
H	 0.7600352439	 3.9293728197	 0.0414911331	 0.122804
H	 1.6879145189	 1.0170069932	-0.2813998558	 0.127713
H	 0.8259515992	 2.5227558864	 2.2503999107	 0.090527
H	 1.2675139186	 0.8101808006	 2.1773149791	 0.131932
H	 4.1450524238	 3.7997944538	 1.4609362126	 0.122513
H	 2.4542694193	 4.2259593462	 2.0253606254	 0.110857
H	 2.6003513451	 2.6464970405	 3.9265010918	 0.115604
H	 4.2987600722	 2.1446053127	 3.456394576	 0.123924
59.2914	81.3662	118.5826	152.0621	248.5774	325.2951	363.1393	427.3266	550.0605	666.6276	742.8413	775.2524	837.3882	868.6095	893.287	914.8386	958.4068	969.7167	1028.2563	1036.8006	1102.6585	1114.4193	1119.9043	1126.9778	1140.9378	1161.1085	1175.1888	1188.8743	1212.4536	1270.625	1318.6339	1334.2629	1358.9111	1398.2036	1485.0128	1493.7453	1514.3423	1521.6893	1936.4522	2931.8986	3064.6809	3073.151	3092.0908	3092.7526	3100.2252	3135.2556	3179.8332	3194.0743
O=C1OCC1CN1CC1	O=C1OC[C@H]1CN1CC1	
InChI=1S/C6H9NO2/c8-6-5(4-9-6)3-7-1-2-7/h5H,1-4H2	InChI=1S/C6H9NO2/c8-6-5(4-9-6)3-7-1-2-7/h5H,1-4H2/t5-/m1/s1
