12
gdb 9033	4.27436	0.92156	0.78599	2.8538	67.69	-0.2746	-0.0712	0.2034	1340.7042	0.079997	-381.261616	-381.252829	-381.251885	-381.296338	29.235	
O	-0.0906877017	 1.4382467624	 0.0250122044	-0.383253
C	 0.035579165	 0.0242599898	-0.007595055	-0.236382
C	 0.6904843463	-0.4573332943	-1.2314461402	 0.318581
C	 1.2388957337	-0.8162792511	-2.2375309406	-0.43672
C	 0.7273770949	-0.505761971	 1.1780511834	 0.146262
C	 1.2907293937	-0.9290588421	 2.1583139127	 0.011958
C	 1.974048116	-1.4013831287	 3.3373918032	 0.022666
O	 1.9770846803	-2.5517665555	 3.7080164895	-0.221581
H	 0.7938341506	 1.8128688828	-0.0629565956	 0.294739
H	-0.9980986226	-0.3458209033	 0.0098066715	 0.164624
H	 1.7163073555	-1.1427525467	-3.1289429045	 0.213857
H	 2.5117699283	-0.6085576323	 3.8954277011	 0.105249
36.9544	77.3725	108.9432	189.865	216.5016	229.0332	319.1945	377.3687	463.6257	532.9628	595.4145	651.8238	668.2266	687.0658	821.8742	941.7525	1020.1927	1051.9505	1136.074	1258.565	1301.75	1410.5153	1421.1809	1770.8139	2241.0865	2328.5221	2924.8353	3031.3011	3499.8417	3799.9282
OC(C#C)C#CC=O	O[C@@H](C#C)C#CC=O	
InChI=1S/C6H4O2/c1-2-6(8)4-3-5-7/h1,5-6,8H	InChI=1S/C6H4O2/c1-2-6(8)4-3-5-7/h1,5-6,8H/t6-/m0/s1
