18
gdb 32949	4.24422	0.86657	0.75574	0.7197	79.33	-0.1841	0.0285	0.2127	1520.5996	0.147185	-439.098727	-439.089496	-439.088552	-439.133473	33.125	
C	 0.0018440914	 1.3044608585	-0.2886704355	-0.219236
O	 0.0398739917	-0.0935699361	-0.1376705996	-0.23237
C	-1.2476192457	-0.643742151	 0.1083176178	-0.191737
C	-1.1753105891	-2.1172975561	 0.1994366504	 0.343269
C	-1.2494784532	-3.004380968	 1.2234389053	-0.240257
C	-1.103678321	-4.3174320107	 0.6654707769	-0.257603
C	-0.9514070462	-4.1240164959	-0.6776495584	 0.367345
N	-0.8418720601	-4.9828969877	-1.7610976027	-0.597231
O	-0.9961182171	-2.8099345256	-0.9847624401	-0.204168
H	 1.023516485	 1.6404550852	-0.4820892681	 0.125567
H	-0.6383994183	 1.6104715389	-1.1322735426	 0.100878
H	-0.3706195768	 1.8076411704	 0.6189009309	 0.099393
H	-1.6587727415	-0.2555179917	 1.0540200118	 0.097331
H	-1.9368418404	-0.3401816873	-0.6983117726	 0.095409
H	-1.385424773	-2.7540703385	 2.2646099491	 0.105158
H	-1.1124311258	-5.2619105756	 1.184762528	 0.09509
H	-0.4604483059	-5.8843036845	-1.5101910432	 0.255857
H	-0.3243800039	-4.5742878745	-2.5289986173	 0.257305
59.2144	85.9517	100.5428	192.1757	224.6574	254.1987	289.0322	338.067	390.3627	436.3737	631.9574	644.9362	687.9883	726.4855	749.9071	783.106	836.5701	951.6826	971.6029	992.5281	1018.3994	1046.6179	1104.5942	1135.3825	1180.5751	1216.301	1228.5145	1252.7186	1284.0234	1303.7664	1410.8123	1449.558	1476.6201	1483.8499	1493.1346	1514.6182	1604.5387	1646.7185	1672.2412	2951.7083	2964.3864	2994.0503	3002.7475	3112.4629	3248.7282	3265.5164	3547.8313	3648.8175
COCC1=CC=C(N)O1	COCc1ccc(N)o1	
InChI=1S/C6H9NO2/c1-8-4-5-2-3-6(7)9-5/h2-3H,4,7H2,1H3	InChI=1S/C6H9NO2/c1-8-4-5-2-3-6(7)9-5/h2-3H,4,7H2,1H3
