19
gdb 32805	3.21432	1.05137	0.8042	1.5384	80.39	-0.1908	0.0254	0.2162	1436.3971	0.157961	-423.053879	-423.044419	-423.043475	-423.089206	33.675	
C	-0.0604686532	 1.5365008347	 0.0501648454	-0.390767
C	 0.0197469563	 0.0208573642	 0.0265226333	-0.049013
O	-1.3085057894	-0.4861396796	 0.025772867	-0.278205
C	-1.4439434584	-1.8377503462	 0.0048625017	 0.236219
C	-2.6541365338	-2.4719358162	-0.0004847821	 0.248619
C	-4.0508456928	-1.9733292423	 0.0126058685	-0.498232
O	-2.4432714383	-3.8255394331	-0.0225130359	-0.177354
C	-1.1057643579	-4.0349404329	-0.0308786779	-0.010258
C	-0.4302365221	-2.8556904253	-0.0150146695	-0.313218
H	 0.9449755778	 1.9674151359	 0.0512041184	 0.118166
H	-0.5968258713	 1.9067609961	-0.8278957669	 0.130504
H	-0.5870551583	 1.8797044902	 0.9449699132	 0.130505
H	 0.5538717609	-0.3281399881	-0.8693333484	 0.101931
H	 0.5632391977	-0.3553093589	 0.9055960688	 0.101919
H	-4.609790065	-2.2932909507	-0.8750388392	 0.131677
H	-4.6038644617	-2.3235897871	 0.8924687568	 0.131693
H	-4.035956396	-0.8812061503	 0.0312304516	 0.143531
H	-0.7893484963	-5.064735393	-0.0481990661	 0.130527
H	 0.6398279517	-2.7292388075	-0.0171364986	 0.111759
40.4263	83.4601	111.639	135.9484	217.6955	244.2523	269.9696	328.3772	348.5721	491.0396	613.5077	637.4432	677.3038	723.0334	755.0967	795.9727	828.5669	906.9903	922.3837	965.9882	1061.3059	1064.3808	1099.1448	1124.5411	1178.0442	1185.8365	1194.3128	1251.8596	1296.4173	1314.0359	1400.0151	1407.6572	1424.1969	1463.3545	1475.4974	1483.3673	1490.4621	1500.669	1528.9245	1542.6081	1685.4067	2987.4421	3021.6468	3021.6988	3047.1538	3067.4994	3122.3785	3124.9456	3129.2896	3260.6794	3284.3527
CCOC1=C(C)OC=C1	CCOc1c(C)occ1	
InChI=1S/C7H10O2/c1-3-8-7-4-5-9-6(7)2/h4-5H,3H2,1-2H3	InChI=1S/C7H10O2/c1-3-8-7-4-5-9-6(7)2/h4-5H,3H2,1-2H3
