15
gdb 19259	3.04548	2.24399	1.75783	4.3712	61.05	-0.2357	-0.0307	0.205	780.7186	0.11867	-399.751242	-399.744139	-399.743195	-399.782615	26.634	
O	 0.4961761467	 1.2050698676	 0.2425850406	-0.430208
C	 0.1911490789	-0.1262214202	-0.0011412031	 0.150103
C	-1.2593404925	-0.6208450634	 0.1334501701	-0.084704
N	-2.0370897563	 0.0371441184	-0.9391088558	-0.324132
C	-1.2448290724	-1.1692990352	-1.2514052143	-0.063092
C	 0.2039039113	-0.6761822779	-1.492752051	-0.179639
C	 0.3423427651	 0.3014066511	-2.6245990131	 0.169782
O	 0.2008103701	 1.4977096723	-2.5208050977	-0.256435
H	 0.1222464315	 1.7151917842	-0.4914088335	 0.305314
H	 0.8558275734	-0.7385485648	 0.6162255851	 0.094607
H	-1.7505259707	-0.9973136338	 1.0224622457	 0.099504
H	-3.0090059391	-0.2499253489	-0.8350747776	 0.23679
H	-1.7006308561	-2.0643992412	-1.6537915544	 0.103323
H	 0.8999384265	-1.5085805246	-1.6297300818	 0.091417
H	 0.5593886733	-0.1510329635	-3.6184154292	 0.08737
103.8087	135.0667	214.8562	257.0549	381.3591	421.7029	497.6124	608.2259	647.6541	754.8637	768.2274	839.5968	861.7666	886.2174	907.0432	963.8726	1009.7537	1030.1843	1069.0494	1100.5733	1104.0456	1155.6492	1178.1198	1241.4197	1251.2311	1301.4792	1346.0246	1358.4901	1374.4716	1428.7849	1470.1218	1803.443	2875.4093	3061.9851	3078.2627	3186.7951	3205.2726	3488.6481	3722.0221
OC1C2NC2C1C=O	O[C@H]1[C@H]2N[C@H]2[C@H]1C=O	
InChI=1S/C5H7NO2/c7-1-2-3-4(6-3)5(2)8/h1-6,8H	InChI=1S/C5H7NO2/c7-1-2-3-4(6-3)5(2)8/h1-6,8H/t2-,3+,4+,5-/m1/s1
