13
gdb 21709	8.42285	1.1711	1.03186	3.3815	67.04	-0.2113	-0.0096	0.2017	1056.6052	0.098377	-390.971446	-390.964345	-390.963401	-391.003281	25.294	
N	-0.0473871003	 1.3367297412	 0.1445291608	-0.49668
C	 0.0489276325	-0.0087613771	-0.0203031041	 0.113854
N	 1.1604843949	-0.6282650999	 0.1283919069	-0.351874
C	 1.1617417839	-2.0100221677	 0.0527377032	 0.369016
N	 0.0824019399	-2.804939827	 0.1396331735	-0.297804
N	 0.5964524691	-4.024693961	 0.0146451041	-0.074362
N	 1.9107044124	-4.1086669515	-0.1326258838	-0.19911
C	 2.2960858814	-2.8339281014	-0.1104222996	-0.124246
H	 0.813326762	 1.8547952981	 0.23379727	 0.26478
H	-0.8401447033	 1.8243135672	-0.2347965764	 0.263637
H	-0.8978121997	-0.5067200159	-0.2516473904	 0.125033
H	 0.0189908732	-4.8473278849	 0.0687792788	 0.287822
H	 3.3314339739	-2.5534820802	-0.212750393	 0.119933
60.0529	154.1424	165.593	330.0419	390.9755	441.0593	468.0973	469.1092	595.5317	714.9097	749.3534	796.068	880.4313	987.234	1016.6498	1027.756	1099.7923	1163.7888	1209.4205	1245.2514	1306.174	1353.9493	1372.7642	1407.2095	1507.3135	1559.5381	1627.4381	1728.7886	3084.8833	3277.9658	3593.0903	3671.8432	3726.3756
NC=NC1=NNN=C1	NC=Nc1n[nH]nc1	
InChI=1S/C3H5N5/c4-2-5-3-1-6-8-7-3/h1-2H,(H3,4,5,6,7,8)	InChI=1S/C3H5N5/c4-2-5-3-1-6-8-7-3/h1-2H,(H3,4,5,6,7,8)
