16
gdb 113039	3.60756	1.03234	0.86556	4.0349	71.08	-0.2651	-0.0216	0.2435	1292.4775	0.124239	-437.888008	-437.879628	-437.878684	-437.921776	30.368	
O	 0.1247169692	 1.3760463871	-0.1699772029	-0.417
C	 0.1204106228	-0.0327580034	-0.1201095891	-0.056905
C	-1.2646511619	-0.5707019814	 0.2493843653	 0.047647
O	-2.1979342174	-0.0957449857	-0.7455142279	-0.285261
C	-2.9177194357	-1.1832271682	-1.3101895279	-0.060335
C	-2.3173938212	-2.4236142182	-0.6832306969	-0.097903
C	-1.4000384015	-2.0641920567	 0.20461245	-0.096477
C	-4.3649115467	-1.05806108	-1.0229992759	 0.269648
N	-5.4977759874	-0.9784920091	-0.8116777234	-0.314824
H	-0.5806401617	 1.6305851292	-0.7765954168	 0.295104
H	 0.4303410318	-0.4817077669	-1.0773779839	 0.090205
H	 0.8471889919	-0.3285103944	 0.6444624502	 0.111741
H	-1.5519453853	-0.1525543755	 1.2255284995	 0.110665
H	-2.8020876092	-1.1694103217	-2.4038573158	 0.138129
H	-2.6436591966	-3.4214714902	-0.9416875735	 0.137213
H	-0.8086076812	-2.727416415	 0.8225438391	 0.128353
60.1209	106.8133	119.0631	209.9813	231.6983	345.625	431.2882	450.2182	473.6661	519.5437	575.5121	730.9858	766.5513	818.3348	844.706	917.8793	962.3039	990.5926	998.905	1036.211	1079.1704	1088.5571	1109.0021	1137.0665	1219.6512	1266.9759	1300.6644	1335.3653	1349.6947	1370.2243	1394.2799	1429.9923	1496.5086	1690.4545	2357.9073	2977.8505	3001.0336	3004.7123	3074.3303	3218.6629	3245.3053	3797.1871
OCC1OC(C=C1)C#N	OC[C@H]1O[C@@H](C=C1)C#N	
InChI=1S/C6H7NO2/c7-3-5-1-2-6(4-8)9-5/h1-2,5-6,8H,4H2	InChI=1S/C6H7NO2/c7-3-5-1-2-6(4-8)9-5/h1-2,5-6,8H,4H2/t5-,6-/m0/s1
