15
gdb 6314	4.52159	1.16736	0.95942	6.0352	64.03	-0.2524	0.0118	0.2642	1138.8056	0.118261	-399.798592	-399.790354	-399.78941	-399.831537	29.976	
N	 0.0518881058	 0.8292733653	 0.1626598554	-0.517619
H	 0.1626699346	-0.1636175823	 0.3446419119	 0.255033
H	 1.357697568	 2.0236365925	 0.3811399308	 0.315277
H	-0.4355202449	 0.9100011396	-0.7265111765	 0.250591
C	-0.7647464399	 1.4575566697	 1.230460259	-0.203804
C	-0.6880543552	 2.9949051601	 1.0903442573	-0.320291
C	 0.7163815068	 3.5986121233	 1.2412419677	 0.392646
O	 1.7243141751	 2.8688277896	 0.7458577544	-0.369715
O	 0.8938738766	 4.671957888	 1.7526884814	-0.327887
C	-2.1521205911	 0.9916185586	 1.2382545103	 0.31552
C	-3.2923571375	 0.6120987277	 1.207019781	-0.421003
H	-0.2929134492	 1.1776914404	 2.1805113111	 0.137402
H	-1.0792171991	 3.2793457165	 0.104849666	 0.134784
H	-1.3274462052	 3.471661899	 1.8337129709	 0.151045
H	-4.2992780947	 0.273161072	 1.194273449	 0.208021
87.9371	98.8726	136.2096	252.0842	277.8892	332.5946	394.3353	428.8415	505.4721	562.275	621.9938	649.2201	668.2259	681.4805	850.2348	878.5552	923.9762	972.6571	973.6462	1026.3275	1109.9274	1140.2596	1263.4818	1272.5651	1295.5063	1358.3207	1393.8712	1462.0644	1490.1655	1653.1776	1861.9383	2233.5895	3031.7279	3046.9096	3136.7695	3274.8048	3490.7371	3499.7914	3572.313
[NH3+]C(CC([O-])=O)C#C	N[C@@H](CC(=O)O)C#C	
InChI=1S/C5H7NO2/c1-2-4(6)3-5(7)8/h1,4H,3,6H2,(H,7,8)	InChI=1S/C5H7NO2/c1-2-4(6)3-5(7)8/h1,4H,3,6H2,(H,7,8)/t4-/m1/s1
