16
gdb 85783	3.11948	1.21839	0.92441	2.628	68.74	-0.2582	-0.0138	0.2445	1210.8973	0.12448	-471.231249	-471.222253	-471.221309	-471.265532	32.29	
N	-0.0471073769	 1.3461513221	-0.5355347176	-0.558985
C	 0.1048688061	 0.0200582916	-0.1748727478	 0.437475
O	 1.1722266548	-0.5348749911	-0.033301192	-0.36904
N	-1.0993527852	-0.6391889624	 0.0496558891	-0.156932
C	-1.3067857782	-2.0533290631	 0.4099999385	-0.185673
C	-2.8234219058	-1.7199566213	 0.5432780304	 0.044612
O	-3.3814500798	-2.0056661296	 1.7957511736	-0.428756
C	-2.4220957295	-0.2619106865	 0.319715847	 0.351317
N	-3.0828581643	 0.8040162818	 0.4643725118	-0.56277
H	 0.8132680342	 1.7705121211	-0.8494490409	 0.269497
H	-0.8631431237	 1.5953213156	-1.0747082233	 0.260262
H	-1.0170319108	-2.7558353656	-0.3732087504	 0.127757
H	-0.8487291719	-2.3255767152	 1.3627621876	 0.144426
H	-3.4232214018	-2.1293474297	-0.2809408379	 0.098913
H	-3.992149107	-1.2877576001	 2.0020791627	 0.303057
H	-2.51314544	 1.6456534324	 0.3773120291	 0.224838
64.1805	89.2129	133.0813	171.9564	201.068	279.9365	355.6577	416.5779	434.0768	448.9187	561.6258	577.0679	651.7611	742.0831	780.2171	790.07	857.1364	876.1508	946.5985	1036.9506	1084.7506	1133.9513	1164.497	1173.6942	1205.7003	1219.699	1244.3492	1332.9309	1361.6987	1386.6989	1421.5333	1510.2446	1620.8701	1786.726	1813.1364	3015.1566	3078.3418	3140.2435	3482.9622	3569.0686	3686.2513	3793.5932
NC(=O)N1CC(O)C1=N	NC(=O)N1C[C@@H](O)[C]1[NH]	
InChI=1S/C4H7N3O2/c5-3-2(8)1-7(3)4(6)9/h2,5,8H,1H2,(H2,6,9)	InChI=1S/C4H7N3O2/c5-3-2(8)1-7(3)4(6)9/h2,5,8H,1H2,(H2,6,9)/t2-/m1/s1
