23
gdb 100869	2.24592	1.1123	0.78871	1.3811	88.48	-0.2476	0.0588	0.3064	1534.6921	0.201726	-388.25388	-388.242378	-388.241434	-388.290867	41.189	
C	-0.058611709	 1.6295114928	-0.0014948876	-0.389415
C	-0.0220096202	 0.1017402028	 0.0821597819	-0.189363
C	-1.4210052816	-0.554070187	-0.0014595459	-0.168889
C	-2.10226341	-0.1801864218	-1.2413985981	 0.346352
C	-2.6180923606	 0.1285218062	-2.2828229364	-0.473117
C	-1.3853537904	-2.097787759	 0.1251143309	 0.1317
C	-0.6429419473	-2.597278539	 1.3668684256	-0.410832
O	-2.7441293339	-2.5133490559	 0.1636246106	-0.241143
C	-2.9838632788	-3.7955674962	-0.3648763705	-0.236754
H	 0.9509532858	 2.0452750868	 0.070699707	 0.110301
H	-0.4992582372	 1.9624672102	-0.9448174912	 0.134945
H	-0.6537232469	 2.0547800324	 0.8144308293	 0.113831
H	 0.6053543937	-0.2995082547	-0.7235201087	 0.102563
H	 0.4448096867	-0.1954168302	 1.0262685093	 0.101723
H	-2.0227467095	-0.192397653	 0.8449623222	 0.108354
H	-3.0964907891	 0.3996357671	-3.1910407483	 0.190085
H	-0.9036318139	-2.5028534238	-0.7791244946	 0.071882
H	-0.7831922232	-3.6763114581	 1.4778853798	 0.117817
H	 0.4323277141	-2.4116949985	 1.3020552728	 0.12025
H	-1.0307148254	-2.1120601494	 2.2686328789	 0.122197
H	-2.4616788294	-4.5894384568	 0.1909563657	 0.1008
H	-4.05930838	-3.9764609456	-0.2925577784	 0.127401
H	-2.684503494	-3.8600092492	-1.4221114944	 0.109313
54.8841	65.876	95.9901	141.3008	166.4043	188.1338	202.2195	250.1763	258.5836	317.1678	334.3675	362.0767	426.1382	481.529	540.359	582.5316	621.0255	633.0639	770.4274	853.4833	864.187	938.5409	959.1037	1027.8216	1053.2405	1104.8306	1122.6473	1129.5272	1142.6396	1163.5365	1184.4924	1221.4087	1271.575	1292.5368	1339.7911	1366.6877	1374.6662	1386.1691	1407.2832	1412.0163	1478.9646	1485.5622	1486.3566	1494.5207	1497.0001	1500.6282	1508.943	1509.3194	2231.9377	2971.4769	2980.24	3008.0671	3021.6687	3032.48	3036.6212	3042.0078	3079.6912	3101.8616	3110.9246	3112.2922	3120.3168	3123.1454	3504.9012
CCC(C#C)C(C)OC	CC[C@@H](C#C)[C@@H](C)OC	
InChI=1S/C8H14O/c1-5-8(6-2)7(3)9-4/h1,7-8H,6H2,2-4H3	InChI=1S/C8H14O/c1-5-8(6-2)7(3)9-4/h1,7-8H,6H2,2-4H3/t7-,8-/m1/s1
