20
gdb 58133	1.76303	1.58309	1.14442	3.4233	79.42	-0.274	-0.0525	0.2215	1198.1654	0.167562	-403.17891	-403.16834	-403.167396	-403.214178	37.986	
C	 0.0424862033	 1.5157557431	-0.0312086957	-0.419906
C	-0.0412979688	-0.0182089481	-0.0067236852	 0.023588
C	 0.878651416	-0.5918197535	 1.0799342038	-0.422201
C	-1.5120758713	-0.5281385325	 0.1238431403	-0.009651
C	-2.3002963715	 0.0703500337	 1.3164675111	-0.43509
C	-2.3311133011	-0.2426265958	-1.1610526097	 0.157201
O	-1.8945371332	 0.269696819	-2.1526852863	-0.234565
C	-1.5385603693	-1.9946603981	 0.2429457142	 0.270141
N	-1.5861765565	-3.1480549247	 0.3134404999	-0.338724
H	 1.0686952514	 1.8167072109	-0.2624377283	 0.123357
H	-0.6089844252	 1.9497644288	-0.7916076724	 0.137567
H	-0.2094607058	 1.9508610982	 0.9414961189	 0.115631
H	 0.3066157831	-0.3832875602	-0.9792086904	 0.108486
H	 0.5892722111	-0.247107625	 2.0789247115	 0.117306
H	 0.878084689	-1.6848821485	 1.0843045427	 0.143479
H	 1.9057203485	-0.2569443342	 0.9065445062	 0.12246
H	-2.3762325554	 1.1550987467	 1.2167328915	 0.141803
H	-3.3106915619	-0.3454928247	 1.357993945	 0.141653
H	-1.8040462899	-0.1621006445	 2.2607475727	 0.149815
H	-3.3928612026	-0.5632844706	-1.0850996898	 0.107651
75.8414	83.4674	152.6995	180.1013	204.8071	214.7022	236.2456	261.4263	297.634	310.2818	372.5701	380.2455	467.6811	522.9151	562.5988	623.3234	682.8984	892.3193	902.3005	922.069	937.3574	972.5762	980.7139	1044.7371	1118.1373	1169.9312	1179.3132	1196.673	1217.4017	1342.6738	1371.5012	1402.3346	1403.177	1419.0832	1430.8835	1483.6677	1493.818	1494.6859	1503.4969	1512.0875	1515.7927	1842.2656	2343.4003	2899.916	3036.7773	3043.4801	3052.5308	3056.1905	3100.3747	3107.8618	3121.0909	3128.6987	3139.0489	3143.2747
CC(C)C(C)(C=O)C#N	CC(C)[C@@](C)(C=O)C#N	
InChI=1S/C7H11NO/c1-6(2)7(3,4-8)5-9/h5-6H,1-3H3	InChI=1S/C7H11NO/c1-6(2)7(3,4-8)5-9/h5-6H,1-3H3/t7-/m1/s1
