19
gdb 15362	3.13881	1.38109	1.09064	3.417	72.62	-0.2458	0.0274	0.2732	1140.3822	0.164973	-365.078805	-365.06986	-365.068916	-365.113137	31.94	
C	 0.0500331689	 1.3382701996	 0.0592809861	-0.379149
C	-0.1084070337	-0.1573158859	 0.3538426775	-0.192123
C	-1.5074967046	-0.6614626148	 0.0720516138	 0.036529
C	-1.9060110912	-1.1164994595	-1.3129010302	-0.334892
C	-1.7971640442	-2.1193760182	-0.1931184023	 0.02296
N	-0.727587268	-3.0750775101	-0.2403817934	-0.279396
C	-0.1442675085	-3.5826310011	 0.8819775384	 0.152051
O	-0.3691938967	-3.2136018138	 2.0135107164	-0.318817
H	 1.0676298826	 1.677305508	 0.2768465581	 0.111915
H	-0.1620726792	 1.5602152199	-0.9922034087	 0.113042
H	-0.6364050477	 1.9372432325	 0.6679153104	 0.114655
H	 0.609838626	-0.7291489369	-0.2444693428	 0.089889
H	 0.1352252974	-0.3636416999	 1.4021521179	 0.122865
H	-2.2841809916	-0.1573436894	 0.6421817423	 0.088705
H	-2.8916094533	-0.8820059147	-1.698628815	 0.117364
H	-1.1230133344	-1.1354877509	-2.0655879383	 0.111082
H	-2.7232218596	-2.5087727085	 0.2228812016	 0.105408
H	-0.5403745411	-3.5411991978	-1.1148931375	 0.247099
H	 0.5850118288	-4.3821211387	 0.6367917656	 0.070813
43.6933	78.219	139.1565	170.9784	226.3415	255.065	297.2601	362.2788	429.9187	506.0435	588.9428	756.4851	779.4105	804.4831	842.9501	856.0837	954.0126	974.0232	1029.1866	1037.7282	1052.0394	1077.3095	1106.4108	1140.4818	1150.6118	1193.4664	1211.2834	1274.7344	1290.4383	1337.6871	1396.5152	1410.5762	1424.3161	1431.6642	1483.652	1491.9145	1498.9424	1503.8071	1508.8689	1810.8936	2921.8672	3030.3224	3038.7758	3069.7828	3099.5676	3103.6438	3125.6003	3126.9311	3140.4444	3214.4949	3615.6119
CCC1CC1NC=O	CC[C@H]1C[C@H]1NC=O	
InChI=1S/C6H11NO/c1-2-5-3-6(5)7-4-8/h4-6H,2-3H2,1H3,(H,7,8)	InChI=1S/C6H11NO/c1-2-5-3-6(5)7-4-8/h4-6H,2-3H2,1H3,(H,7,8)/t5-,6+/m0/s1
