14
gdb 128360	7.01502	0.88529	0.7908	4.3542	68.96	-0.2427	-0.0911	0.1516	1367.8424	0.100573	-470.007292	-469.998912	-469.997968	-470.040874	28.76	
C	 0.0335226229	 1.4156973616	-0.0613784496	-0.327642
N	-0.0608907012	-0.0243987647	 0.1013614201	-0.383839
C	 0.6176009247	-0.6575575808	 1.088422882	 0.457085
N	 1.2194341795	-0.0304860773	 2.087516525	-0.201596
O	 1.72084159	-1.0846339593	 2.8662017518	-0.184006
C	 1.3796746706	-2.2091847162	 2.2421118863	 0.333026
C	 1.7685662053	-3.5255086268	 2.805254822	 0.085604
O	 2.3898263297	-3.6649229304	 3.8258824361	-0.231254
N	 0.7035868508	-2.0322335593	 1.1443900473	-0.358194
H	 1.045004204	 1.7465100305	-0.3321445407	 0.134622
H	-0.6652126099	 1.7279284092	-0.8393996895	 0.133255
H	-0.2430469358	 1.9076261562	 0.8746485832	 0.160879
H	-0.2377381243	-0.5885763948	-0.7134956122	 0.262971
H	 1.4210958437	-4.3693989278	 2.1787549084	 0.119088
75.3163	124.3807	137.	146.18	237.5036	256.5566	360.2516	385.7023	425.1638	600.783	668.775	721.7557	772.4372	785.6527	940.5374	1021.2973	1026.8956	1042.865	1132.1639	1155.7887	1179.6421	1313.8624	1358.9489	1395.5638	1456.8064	1482.5557	1494.7626	1518.0073	1609.8433	1637.9841	1816.9577	2958.1375	3017.6191	3096.6625	3140.4721	3651.4264
CNC1=NOC(C=O)=N1	CNc1noc(C=O)n1	
InChI=1S/C4H5N3O2/c1-5-4-6-3(2-8)9-7-4/h2H,1H3,(H,5,7)	InChI=1S/C4H5N3O2/c1-5-4-6-3(2-8)9-7-4/h2H,1H3,(H,5,7)
