20
gdb 18036	3.64322	2.00072	1.46688	0.2227	79.8	-0.2323	0.0292	0.2615	910.5995	0.180627	-311.87845	-311.871658	-311.870713	-311.909124	27.831	
C	-0.0274790467	 1.5760311224	 0.0623781025	-0.235186
C	 1.5157722099	 1.5892940964	-0.1253575085	-0.232593
C	 1.4259891104	 0.102133755	-0.6038200801	-0.005843
C	 2.4200735045	-0.9125191237	-0.1394104448	-0.074324
C	 2.1031447512	-1.8874755907	 0.7145155413	-0.055737
C	 0.7362007263	-2.0148427996	 1.3436989458	-0.255855
C	 0.0189875922	-0.6560211949	 1.3937509261	-0.208607
C	 0.0001666501	 0.0211990134	 0.0200760572	 0.001782
H	-0.4274387239	 2.0392125918	 0.9688016095	 0.092714
H	-0.5471138166	 2.0016674939	-0.8006167818	 0.096464
H	 1.9311055216	 2.3168933377	-0.8266712849	 0.093298
H	 2.0511289538	 1.6776855119	 0.8234532194	 0.102498
H	 1.3634930548	 0.084157889	-1.6989427807	 0.073555
H	 3.4287933066	-0.8482892634	-0.5436559004	 0.07879
H	 2.8506842305	-2.6265665378	 0.9929639782	 0.081404
H	 0.1303729184	-2.7453624457	 0.7866615075	 0.105592
H	 0.8315312763	-2.4251778825	 2.356192834	 0.097628
H	-1.0021388767	-0.7677014282	 1.7761019822	 0.089317
H	 0.552507247	-0.0167920327	 2.1086486182	 0.09663
H	-0.7546699797	-0.4524861525	-0.6156386806	 0.058473
131.1559	194.7368	272.6277	335.3532	439.6811	488.7058	495.729	649.3855	718.8856	736.0378	771.8865	798.5113	865.7442	886.7524	940.6269	963.5279	966.9818	990.2673	1002.0917	1010.1731	1061.4473	1075.5855	1095.3763	1125.4903	1162.2087	1200.3252	1229.7132	1253.9834	1254.834	1260.6723	1279.3485	1290.3965	1332.5625	1348.7665	1363.4378	1389.738	1417.6752	1478.3502	1482.4634	1491.5274	1502.3416	1711.7609	2996.946	3019.5579	3022.7316	3042.1398	3047.2571	3052.4181	3062.6184	3068.7381	3096.4206	3117.4803	3132.985	3160.0815
C1CC2C=CCCC12	C1C[C@H]2C=CCC[C@@H]12	
InChI=1S/C8H12/c1-2-4-8-6-5-7(8)3-1/h1,3,7-8H,2,4-6H2	InChI=1S/C8H12/c1-2-4-8-6-5-7(8)3-1/h1,3,7-8H,2,4-6H2/t7-,8+/m1/s1
