20
gdb 59344	2.81931	1.12656	0.99133	2.5771	76.65	-0.2401	0.0228	0.2629	1297.7771	0.169297	-440.306986	-440.29688	-440.295936	-440.343138	35.877	
C	-0.0344485594	 1.5504608308	 0.3169755685	-0.389552
C	-0.0605004441	 0.051558069	-0.0028686876	 0.033948
C	 0.7914821214	-0.7649434402	 0.9807944558	-0.386632
N	-1.4359765793	-0.4347703195	-0.036898376	-0.091811
C	-2.0371365105	-1.5524136856	-0.7851056216	-0.192482
C	-3.3393839323	-1.305791296	 0.0229704641	-0.000837
O	-3.770731477	-2.4060662723	 0.7827459665	-0.434529
C	-2.5063657698	-0.2565948459	 0.8002606593	 0.378641
O	-2.6914411064	 0.4074438595	 1.7923018729	-0.395926
H	 0.9972759368	 1.9139304022	 0.3174835142	 0.113016
H	-0.6006151842	 2.1170344849	-0.4276384028	 0.118669
H	-0.4769491533	 1.7404871907	 1.2973581401	 0.156415
H	 0.3344041358	-0.0984775325	-1.0160297348	 0.089701
H	 0.4266174721	-0.628502906	 2.0033350153	 0.13957
H	 0.7575009776	-1.8325794868	 0.7431248821	 0.11747
H	 1.8367331947	-0.4425333316	 0.94144346	 0.118073
H	-2.089410653	-1.3899443661	-1.8661494914	 0.110216
H	-1.5940665648	-2.5294078381	-0.5676052063	 0.123072
H	-4.1505924516	-0.8702257933	-0.5758989424	 0.092744
H	-4.1302560726	-2.0562360133	 1.6065014042	 0.300236
24.2043	69.7845	126.6396	168.5356	186.9448	227.5885	259.7084	283.2825	314.6414	397.0749	448.1758	449.8059	517.2476	638.0599	771.2223	792.6384	871.038	886.3459	932.6262	951.8632	968.9958	1040.2218	1104.0697	1134.0241	1145.4066	1163.1731	1175.6457	1187.3898	1223.9292	1263.963	1329.8656	1346.5399	1366.2799	1398.3079	1401.9328	1416.6581	1434.5504	1482.9499	1490.0837	1498.0455	1512.3282	1518.4768	1857.4299	3015.3616	3021.4929	3036.6231	3041.5535	3047.6134	3094.9306	3108.4146	3116.6465	3117.9815	3138.282	3796.1142
CC(C)N1CC(O)C1=O	CC(C)N1C[C@@H](O)C1=O	
InChI=1S/C6H11NO2/c1-4(2)7-3-5(8)6(7)9/h4-5,8H,3H2,1-2H3	InChI=1S/C6H11NO2/c1-4(2)7-3-5(8)6(7)9/h4-5,8H,3H2,1-2H3/t5-/m1/s1
