22
gdb 123094	4.44899	0.54017	0.52494	5.4164	79.87	-0.247	0.0222	0.2691	2166.4994	0.193638	-441.522723	-441.512187	-441.511243	-441.559979	37.067	
C	-0.1163164789	 1.5392947854	-0.0892629254	-0.381043
C	-0.2114291702	 0.0244073906	-0.2880764738	-0.165102
C	 0.9606849981	-0.5468589378	-1.0931830147	-0.181132
C	 0.8697899735	-2.0585448538	-1.2885640991	-0.140123
N	 1.9998767329	-2.5652204252	-2.0767004509	-0.321916
H	 1.4772124718	-2.5333948126	-3.9262235252	 0.301634
H	 2.8726773916	-2.292412691	-1.6397917775	 0.231622
C	 1.9694701247	-4.0070798495	-2.3153101518	-0.31024
C	 1.2137329476	-4.3396420265	-3.6132755191	 0.422703
O	 1.069290499	-3.2784061846	-4.4210416511	-0.362798
O	 0.8201749309	-5.4399474224	-3.8871104894	-0.331641
H	 0.7978763964	 1.8118363795	 0.4496348217	 0.115073
H	-0.1024559792	 2.0647364827	-1.0504227578	 0.118054
H	-0.9666959857	 1.918672624	 0.485201621	 0.116727
H	-0.2573566973	-0.4719803057	 0.6900326832	 0.099459
H	-1.1523924013	-0.2205839207	-0.7974517084	 0.103749
H	 1.0104740961	-0.0624371522	-2.0764936754	 0.106365
H	 1.9043282855	-0.3040465829	-0.5829499351	 0.091837
H	 0.802937033	-2.5620922552	-0.3086303969	 0.096297
H	-0.0512715182	-2.308031392	-1.8303122272	 0.122308
H	 2.9925760252	-4.3754656243	-2.4460181849	 0.138771
H	 1.5184377946	-4.5881757558	-1.5000196322	 0.129394
44.287	57.191	75.8291	121.344	141.4325	149.6246	250.7248	293.0788	319.233	354.0821	443.4788	548.057	563.532	663.1134	742.7349	767.1504	813.8977	863.3687	883.6981	905.9587	944.0789	961.9992	1030.323	1056.0263	1072.5061	1136.6326	1141.9037	1171.3541	1215.032	1245.0652	1263.1021	1300.9541	1317.5993	1329.6289	1353.9125	1380.9142	1407.3678	1415.2384	1428.2382	1467.5334	1483.4472	1485.9531	1493.7602	1500.9886	1508.9232	1521.0337	1880.3507	2956.2799	3003.3883	3019.1511	3022.0066	3031.9079	3039.0949	3046.1114	3066.0793	3082.3733	3098.8065	3106.3111	3471.6587	3538.5452
CCCC[NH2+]CC([O-])=O	CCCCNCC(=O)O	
InChI=1S/C6H13NO2/c1-2-3-4-7-5-6(8)9/h7H,2-5H2,1H3,(H,8,9)	InChI=1S/C6H13NO2/c1-2-3-4-7-5-6(8)9/h7H,2-5H2,1H3,(H,8,9)
