21
gdb 121410	4.09969	0.86809	0.75277	1.1514	76.44	-0.234	0.0775	0.3115	1546.5296	0.182724	-461.344361	-461.335169	-461.334225	-461.378922	33.509	
C	 0.7407150034	 1.3904655104	 0.1567930465	-0.22381
O	 0.8406587688	-0.0135155068	 0.1796809406	-0.237855
C	-0.1809910001	-0.625148674	 0.9340462626	-0.087354
C	 0.0393671107	-2.1304507046	 0.8914403026	 0.089532
C	 1.3648966562	-2.5555654682	 1.523785471	-0.082568
O	 1.4721366301	-3.9700718477	 1.5682676549	-0.25178
C	 0.3855588389	-4.5404794072	 2.2779241249	-0.07725
C	-0.9391983403	-4.1301858689	 1.6448613258	-0.078596
O	-1.0506351629	-2.7161211128	 1.594309097	-0.271648
H	 0.8165640343	 1.8214323288	 1.1675735568	 0.106024
H	 1.5661693764	 1.7675040828	-0.4516244779	 0.128724
H	-0.2105949244	 1.7236559218	-0.2869382433	 0.106727
H	-0.1650517936	-0.2767855992	 1.9805764016	 0.093505
H	-1.1770325242	-0.3919560822	 0.5253001084	 0.098471
H	 0.0297504378	-2.4686115086	-0.1579684182	 0.080069
H	 2.2064320991	-2.1859296373	 0.9348351039	 0.12464
H	 1.4301735667	-2.1349421819	 2.5420992812	 0.084084
H	 0.5162842285	-5.6264858827	 2.2433230938	 0.106646
H	 0.4044888863	-4.215639	 3.3316623552	 0.091243
H	-1.0071203711	-4.5526053324	 0.6290677207	 0.094829
H	-1.7870317205	-4.4938060393	 2.2336793618	 0.106367
66.2322	91.1159	116.9843	182.7724	235.085	260.4846	320.3394	349.3086	379.6054	456.7775	489.0743	528.5827	639.5735	844.1395	883.8772	910.9441	923.7983	995.6416	1003.9825	1081.3508	1120.6265	1132.5068	1143.8703	1144.8938	1153.0569	1173.8653	1189.2196	1232.225	1235.7241	1254.9779	1295.034	1322.7073	1336.5243	1353.8607	1393.355	1403.5391	1425.2724	1428.0686	1480.4916	1482.1298	1486.2627	1487.3827	1493.607	1504.0837	1528.4033	2958.305	2960.6673	2969.8993	2973.2636	2977.1021	2982.2259	3003.4461	3017.5712	3084.2632	3084.6563	3116.2382	3117.4273
COCC1COCCO1	COC[C@H]1COCCO1	
InChI=1S/C6H12O3/c1-7-4-6-5-8-2-3-9-6/h6H,2-5H2,1H3	InChI=1S/C6H12O3/c1-7-4-6-5-8-2-3-9-6/h6H,2-5H2,1H3/t6-/m0/s1
