15
gdb 28924	2.40349	1.86008	1.05205	2.3223	71.85	-0.2143	0.0054	0.2197	1057.1956	0.114776	-454.013143	-454.005339	-454.004394	-454.045118	30.299	
N	 0.101146538	 1.3660475448	-0.1683087246	-0.589332
C	 0.0476997286	-0.0298385656	-0.0669511152	 0.262066
N	-1.1460337932	-0.6198097987	-0.0068671465	-0.352868
C	-1.1667900981	-1.958305764	 0.0385442687	-0.009845
C	-0.0382384311	-2.7635505584	 0.0345564797	-0.230985
C	 1.2077074409	-2.1376675182	-0.0514377877	 0.346152
O	 2.3476600765	-2.8609751725	-0.0942610328	-0.434045
C	 1.2452180591	-0.7484133185	-0.1076590811	 0.160686
O	 2.4786045497	-0.1315174254	-0.196865321	-0.478956
H	 0.7740834181	 1.7898668738	 0.4593909177	 0.249463
H	-0.8197680785	 1.7664914203	-0.0379113234	 0.255164
H	-2.1527998113	-2.4127185106	 0.0894988059	 0.105534
H	-0.1034846329	-3.8432504882	 0.0806354997	 0.105153
H	 3.078163952	-2.2344614017	-0.1938577707	 0.307654
H	 2.3951481721	 0.608884663	-0.8119192586	 0.30416
144.4006	160.4836	253.452	286.3987	307.4042	311.081	494.1718	506.5854	536.517	543.0503	559.1212	570.2158	632.3143	720.7833	754.2121	806.3855	833.9534	865.1362	964.2712	1030.0048	1068.7718	1153.4082	1203.2929	1253.153	1299.3202	1332.6342	1379.0938	1397.6758	1494.6687	1539.9506	1622.4165	1643.6207	1663.4765	3160.7666	3214.0748	3525.3454	3626.8193	3756.9263	3765.3428
NC1=NC=CC(O)=C1O	Nc1nccc(O)c1O	
InChI=1S/C5H6N2O2/c6-5-4(9)3(8)1-2-7-5/h1-2,9H,(H3,6,7,8)	InChI=1S/C5H6N2O2/c6-5-4(9)3(8)1-2-7-5/h1-2,9H,(H3,6,7,8)
