17
gdb 30971	2.53163	1.35285	0.92799	3.8932	72.61	-0.1846	0.0496	0.2341	1243.2984	0.135288	-455.196215	-455.186753	-455.185809	-455.230761	33.5	
C	 0.2171633241	 1.1144337251	 0.4252853219	-0.25047
O	-0.4488124583	 0.1895884253	-0.4413746827	-0.268405
C	 0.3671200825	-0.5245619272	-1.2459706616	 0.289747
C	 0.7102677412	-1.8278223936	-1.187855961	 0.215649
C	 0.3477135321	-2.8815069266	-0.204348816	-0.506635
N	 1.5438003613	-2.0552706288	-2.2973465986	-0.404075
C	 1.7074614435	-0.9153712979	-3.0697892309	 0.437012
O	 2.3181447556	-0.7870143076	-4.1121774037	-0.430705
N	 0.9979182285	 0.0508789832	-2.3587296911	-0.406859
H	 0.9180725972	 0.5913859356	 1.0862504	 0.125048
H	 0.7643364025	 1.8743817402	-0.1452188689	 0.123133
H	-0.5611226804	 1.5980675621	 1.0179107603	 0.137832
H	-0.1673737274	-3.7246736124	-0.6817603983	 0.131996
H	 1.2276023945	-3.2858326727	 0.3115953719	 0.130422
H	-0.32478822	-2.4606890257	 0.5462256376	 0.145604
H	 1.9096451258	-2.9442879353	-2.589579791	 0.263174
H	 0.7826855674	 0.9489868063	-2.755536608	 0.267533
63.3988	128.6552	141.0541	169.894	191.8711	220.8577	246.0149	336.6526	355.8093	424.4916	497.5565	563.5494	618.5432	635.3311	690.797	756.8039	826.2275	980.9108	1013.7294	1020.7837	1068.8114	1116.2554	1173.1554	1200.6643	1246.4645	1261.8675	1329.2057	1382.4685	1412.237	1438.6475	1479.7149	1483.3275	1489.7495	1498.7018	1503.3432	1752.3273	1845.0202	3015.6187	3017.1206	3059.7074	3082.0507	3128.9346	3139.2212	3686.819	3690.0343
COC1=C(C)NC(=O)N1	COc1c(C)[nH]c(=O)[nH]1	
InChI=1S/C5H8N2O2/c1-3-4(9-2)7-5(8)6-3/h1-2H3,(H2,6,7,8)	InChI=1S/C5H8N2O2/c1-3-4(9-2)7-5(8)6-3/h1-2H3,(H2,6,7,8)
