18
gdb 55528	4.32355	0.88815	0.78554	3.6155	75.78	-0.2599	-0.0186	0.2414	1479.0343	0.146163	-439.12129	-439.111982	-439.111037	-439.15653	33.136	
C	-0.4408383305	 1.4342316766	 0.3764934151	-0.442517
C	 0.1355719362	 0.0531900456	 0.2908277682	 0.396101
N	 1.3451809012	-0.219750318	 0.4913714966	-0.484062
O	-0.911545761	-0.832776698	-0.0454423375	-0.278073
C	-0.7411660729	-2.1765261209	-0.2066636998	 0.466349
O	 0.3058057386	-2.7659896308	-0.0843920688	-0.366178
C	-2.0328057676	-2.813184596	-0.5552786051	-0.13105
C	-1.9816727936	-4.0148928527	-1.4870570263	-0.249786
C	-2.2684676239	-4.2253449628	-0.0404040053	-0.249786
H	 0.3499031552	 2.1366166363	 0.6367682183	 0.152204
H	-0.8906003616	 1.7195416336	-0.5798502038	 0.140871
H	-1.2329336639	 1.4706416588	 1.1311430233	 0.14083
H	 1.527979726	-1.2161071868	 0.3831317105	 0.259358
H	-2.8789029373	-2.1428310137	-0.6255358773	 0.10792
H	-2.7887529701	-4.1083416441	-2.2040858905	 0.125403
H	-0.99907314	-4.291953545	-1.8502364315	 0.143504
H	-1.4794050936	-4.6444140762	 0.5727237211	 0.143513
H	-3.2787265013	-4.4679280459	 0.2674455926	 0.125399
52.03	55.5412	119.7153	152.6447	168.8227	273.147	294.6219	336.0103	396.3696	535.2387	547.0403	696.2999	751.9264	794.493	820.2223	833.7725	866.3061	918.9006	959.9652	969.1744	1021.7273	1065.6213	1077.8868	1082.5086	1099.253	1118.1783	1131.6409	1170.3452	1210.0303	1224.3428	1316.463	1402.1042	1416.0319	1457.9504	1474.1853	1476.5223	1490.1023	1745.6469	1819.9269	3048.9242	3107.0045	3145.8554	3147.7882	3168.5524	3204.124	3232.8326	3247.3112	3513.1236
CC(=N)OC(=O)C1CC1	C[C]([NH])OC(=O)C1CC1	
InChI=1S/C6H9NO2/c1-4(7)9-6(8)5-2-3-5/h5,7H,2-3H2,1H3	InChI=1S/C6H9NO2/c1-4(7)9-6(8)5-2-3-5/h5,7H,2-3H2,1H3
