21
gdb 56909	2.52789	1.17276	0.94593	2.5705	83.3	-0.2653	0.0251	0.2904	1331.5285	0.181614	-383.270876	-383.260656	-383.259712	-383.305926	37.853	
C	-0.1193717443	 1.5258926774	-0.1906206469	-0.476959
C	-0.0303608026	 0.0184212857	-0.0292372141	 0.326501
C	-1.2892205474	-0.7084446268	-0.4716586038	-0.442976
C	 1.2924204593	-0.6746017211	-0.2684985494	-0.347468
C	 0.7191066352	-0.6041968718	 1.130479242	-0.029025
C	 1.3872625545	 0.1444758258	 2.2834564051	-0.144502
N	 1.9871362441	-0.840879928	 3.1961000258	-0.497832
C	 2.3790544207	 1.1501196644	 1.8436982984	 0.270095
N	 3.202278738	 1.9077971333	 1.5490371743	-0.348105
H	 0.8074283825	 2.038370522	 0.0731246976	 0.14684
H	-0.3488955248	 1.7781475088	-1.2322607531	 0.118882
H	-0.9246079917	 1.9397155686	 0.4285240623	 0.113138
H	-1.499662065	-0.5109899621	-1.5292089903	 0.117743
H	-1.1946532419	-1.7914395586	-0.3462823846	 0.113089
H	-2.160250882	-0.3785309836	 0.1066862115	 0.116001
H	 1.2998292567	-1.6352201299	-0.7730396923	 0.10919
H	 2.1519510772	-0.0484694781	-0.4860782544	 0.133401
H	 0.2855509633	-1.5214811039	 1.5183986055	 0.10351
H	 0.6188974749	 0.6819853162	 2.8541568324	 0.132886
H	 2.7138349484	-1.3532177747	 2.7023576597	 0.242765
H	 2.4442905246	-0.3652027536	 3.9691275543	 0.242826
46.5675	129.2339	146.2413	190.9963	212.4596	235.6445	251.1284	291.8318	333.1271	361.2967	367.6499	419.9981	489.7842	594.3946	631.435	697.6943	794.7168	856.3501	890.3545	921.4513	928.4836	973.7272	984.4961	1004.8772	1065.4212	1076.2553	1087.3984	1140.3139	1147.6253	1159.0465	1209.7955	1272.1162	1323.1758	1345.9833	1382.2284	1408.4943	1414.8234	1428.0401	1483.2576	1492.4428	1493.5386	1504.2447	1515.8674	1658.1971	2339.0595	3021.6313	3026.4611	3028.6333	3079.1618	3084.0641	3100.4305	3127.6272	3133.4997	3149.9691	3213.8847	3485.577	3566.9916
CC1(C)CC1C(N)C#N	CC1(C)C[C@H]1[C@@H](N)C#N	
InChI=1S/C7H12N2/c1-7(2)3-5(7)6(9)4-8/h5-6H,3,9H2,1-2H3	InChI=1S/C7H12N2/c1-7(2)3-5(7)6(9)4-8/h5-6H,3,9H2,1-2H3/t5-,6-/m0/s1
