18
gdb 30672	4.17799	0.9729	0.81594	2.5323	74.98	-0.2102	0.0263	0.2366	1366.5461	0.149002	-439.112929	-439.104277	-439.103333	-439.14694	32.592	
O	 0.0783551791	 1.4290551838	-0.508580187	-0.425212
C	 0.0436705104	 0.0261414441	-0.6447360653	-0.058373
C	-0.9952806666	-0.5769577845	 0.3040741965	-0.044657
O	-2.26338763	 0.0814578851	 0.0998550933	-0.445705
C	-1.1336866302	-2.0602310725	 0.1842107254	 0.286696
C	-0.3564002906	-3.0316553226	-0.4131951181	-0.239878
C	-0.9768777692	-4.2890368534	-0.1744056364	-0.148278
C	-2.1176315932	-4.0510037865	 0.5570801687	-0.089845
N	-2.1997573363	-2.7011311294	 0.7731547658	-0.283269
H	-0.8460272213	 1.7032175507	-0.4447810538	 0.2842
H	-0.1948962839	-0.2800402631	-1.6783023731	 0.081385
H	 1.042147258	-0.3552302766	-0.4082326662	 0.115296
H	-0.7243376003	-0.2844574065	 1.3271008968	 0.10744
H	-2.6141092718	-0.2450382341	-0.7388390085	 0.282264
H	 0.5621368184	-2.8619265781	-0.95382854	 0.09746
H	-0.6270771166	-5.2546068678	-0.5053896567	 0.096657
H	-2.8747526239	-4.7216861676	 0.9305197889	 0.11886
H	-2.9449620019	-2.217679961	 1.2450451596	 0.26496
40.5164	111.0598	141.9442	191.8578	295.102	359.761	384.199	448.0279	488.6235	511.8697	554.4157	633.7218	666.232	724.4091	785.4998	810.8898	856.9908	869.3264	899.8426	982.7507	1049.4294	1054.4578	1072.4955	1104.7228	1121.1928	1143.9988	1199.2809	1235.3495	1277.7247	1284.4377	1316.0202	1381.7844	1418.3361	1435.9109	1449.7257	1454.8355	1493.0566	1509.0985	1607.7083	2954.1153	3026.4373	3078.8645	3243.1432	3254.8077	3271.5127	3674.2518	3762.8903	3771.888
OCC(O)C1=CC=CN1	OC[C@@H](O)c1ccc[nH]1	
InChI=1S/C6H9NO2/c8-4-6(9)5-2-1-3-7-5/h1-3,6-9H,4H2	InChI=1S/C6H9NO2/c8-4-6(9)5-2-1-3-7-5/h1-3,6-9H,4H2/t6-/m1/s1
