19
gdb 121343	2.62259	1.27579	0.97759	2.8523	72.57	-0.2244	0.0654	0.2899	1237.6532	0.161255	-456.387371	-456.378303	-456.377359	-456.422148	32.663	
O	-0.0776049211	 1.4598442721	 0.1249578013	-0.416322
C	-0.0025688056	 0.0455192922	-0.0118152244	-0.079135
C	-1.4228637682	-0.5097257685	-0.0722363642	-0.163501
N	-2.1656722504	-0.1387465104	-1.2555533036	-0.100451
C	-2.7019603661	 1.1901023684	-1.5124969162	-0.157806
C	-3.413290781	 0.9812971589	-2.8658827294	-0.17518
N	-2.6307223845	-0.1084850399	-3.4368114561	-0.357817
C	-2.0539957669	-0.8699329783	-2.4220830157	 0.450268
O	-1.5386154494	-1.9636005637	-2.5419769818	-0.435649
H	 0.8121976161	 1.8178016777	 0.0571290388	 0.289901
H	 0.5346156156	-0.2445310804	-0.9260634094	 0.110954
H	 0.5183131556	-0.4100391996	 0.8457357116	 0.088579
H	-1.3693760493	-1.6019306351	-0.0603540965	 0.137214
H	-1.9762594638	-0.1773657398	 0.8137775458	 0.107371
H	-3.3920493909	 1.5037664034	-0.7229497044	 0.110158
H	-1.9040050097	 1.9378056362	-1.5832563224	 0.123698
H	-4.4661784361	 0.7013128651	-2.7154271239	 0.104809
H	-3.3806160108	 1.8782099913	-3.4900340036	 0.114556
H	-2.9864964734	-0.6306927097	-4.2223384659	 0.248355
34.8927	102.2208	132.9689	184.7462	222.2166	258.848	264.1081	353.7533	453.0734	522.6915	538.191	642.7721	728.7238	757.4802	782.4037	874.5063	904.4788	938.8858	968.3023	1043.9169	1087.7798	1095.9284	1133.3585	1143.5316	1194.2344	1224.9458	1245.2639	1259.2674	1281.8993	1301.2719	1334.4493	1364.7103	1401.5061	1431.4524	1443.3676	1453.2002	1467.315	1516.871	1528.2541	1536.3352	1821.7931	2973.9227	2992.8921	3020.6553	3037.219	3046.2655	3074.3891	3086.9875	3108.1074	3634.9103	3831.5711
OCCN1CCNC1=O	OCCN1CCNC1=O	
InChI=1S/C5H10N2O2/c8-4-3-7-2-1-6-5(7)9/h8H,1-4H2,(H,6,9)	InChI=1S/C5H10N2O2/c8-4-3-7-2-1-6-5(7)9/h8H,1-4H2,(H,6,9)
