16
gdb 7601	2.80055	2.00675	1.42711	3.4763	62.45	-0.2356	-0.026	0.2097	901.2146	0.127371	-420.878206	-420.869777	-420.868833	-420.910774	31.495	
C	 0.025897894	 1.449482786	 0.0609055173	-0.478307
C	 0.0271972742	-0.0584249784	-0.0305398714	 0.354924
O	 1.0672557212	-0.7036418521	-0.0600908772	-0.363053
C	-1.2897054499	-0.7476050068	-0.0368043159	 0.187148
O	-2.4345053833	 0.043924879	 0.0926793976	-0.454685
C	-1.3972207603	-2.0716385742	-0.8023130975	-0.37509
C	-1.3265213803	-2.1126535789	 0.6871794326	 0.131461
O	-0.2398597154	-2.6057040788	 1.3705305907	-0.417187
H	 1.0533381525	 1.811006383	 0.1061746913	 0.141854
H	-0.4833441579	 1.8861426415	-0.8057096035	 0.131838
H	-0.5355076813	 1.7730451169	 0.9426265227	 0.159609
H	-2.7212256935	 0.3142810226	-0.7871237191	 0.287215
H	-2.3538912215	-2.2585519644	-1.2788427344	 0.122018
H	-0.5152746892	-2.3722101144	-1.3581819829	 0.137809
H	-2.2533887814	-2.2786333104	 1.2263148025	 0.12858
H	 0.5540313421	-2.2500744004	 0.9336845171	 0.305867
85.023	125.9365	204.0827	236.3741	285.4447	320.6424	349.4655	424.7422	457.264	479.6333	563.665	573.4523	642.5495	663.2746	785.5245	839.2766	912.5235	965.4025	980.4156	1044.733	1050.9137	1092.5641	1138.9527	1191.2898	1239.3918	1312.1582	1346.3008	1372.4596	1387.7839	1436.5119	1453.5112	1467.8615	1479.6183	1741.595	3042.6262	3105.2257	3128.428	3159.9439	3178.6683	3229.9041	3629.2471	3785.1238
CC(=O)C1(O)CC1O	CC(=O)[C@@]1(O)C[C@H]1O	
InChI=1S/C5H8O3/c1-3(6)5(8)2-4(5)7/h4,7-8H,2H2,1H3	InChI=1S/C5H8O3/c1-3(6)5(8)2-4(5)7/h4,7-8H,2H2,1H3/t4-,5+/m1/s1
