23
gdb 115503	2.21805	1.29114	0.95757	0.5794	82.2	-0.2525	0.0882	0.3407	1357.4473	0.205563	-425.44473	-425.434858	-425.433914	-425.480051	36.229	
C	-0.3087086886	 1.6243304884	 0.1779402495	-0.385156
C	-0.2492780387	 0.1289723264	 0.4984318833	-0.181098
C	-1.4487677219	-0.6502029936	-0.0334034337	 0.157327
C	-1.4150993879	-2.1608541714	 0.2628371138	-0.25717
C	-2.8902830923	-2.4888542924	 0.5338824089	-0.250849
C	-3.3653888874	-1.2033937829	 1.2054003457	 0.225962
O	-3.0488454957	-1.2905465492	 2.5744722237	-0.247164
C	-3.4580815582	-0.1621836327	 3.3223186958	-0.242408
O	-2.6715194	-0.1580160888	 0.558978672	-0.27944
H	 0.5523378599	 2.1540733702	 0.5966437302	 0.108191
H	-0.3125115734	 1.7967624529	-0.904399194	 0.110338
H	-1.2186728881	 2.0697236633	 0.5891775501	 0.132555
H	 0.6610817222	-0.3113991518	 0.0703865097	 0.091707
H	-0.1971337729	-0.0253362118	 1.5831365387	 0.104038
H	-1.5371658256	-0.477517469	-1.116711424	 0.067755
H	-0.9873328453	-2.7327367943	-0.5635896663	 0.100478
H	-0.8177021073	-2.3561910896	 1.1584974383	 0.114712
H	-3.440772239	-2.6339955124	-0.4007975001	 0.104344
H	-3.0427451706	-3.3599085654	 1.1724450671	 0.114207
H	-4.437997279	-0.9881490076	 1.0896243405	 0.064518
H	-3.1815615566	-0.3478051663	 4.3626996422	 0.122304
H	-2.967279401	 0.7539577915	 2.9731126585	 0.122811
H	-4.5483096628	-0.0177126837	 3.2641409802	 0.102037
49.1473	106.2241	107.8018	154.0758	188.7541	215.0363	250.1315	293.3848	397.3294	412.165	450.2055	529.49	614.9084	755.6532	772.6754	837.9767	862.818	912.8535	933.215	960.3364	972.005	1014.9078	1045.3901	1047.7728	1094.7656	1122.4209	1133.5659	1149.9031	1181.0598	1203.1411	1221.0189	1232.0219	1293.3989	1301.4462	1333.6377	1343.546	1355.6547	1386.5728	1397.0817	1405.6981	1410.1268	1475.606	1476.7725	1477.6303	1484.3788	1497.2927	1498.2317	1508.7372	1514.3433	2984.297	2984.6917	2999.6379	3019.8546	3034.9166	3058.9298	3060.5752	3061.7834	3062.678	3099.864	3111.6697	3118.8327	3120.3662	3131.1623
CCC1CCC(OC)O1	CC[C@H]1CC[C@@H](OC)O1	
InChI=1S/C7H14O2/c1-3-6-4-5-7(8-2)9-6/h6-7H,3-5H2,1-2H3	InChI=1S/C7H14O2/c1-3-6-4-5-7(8-2)9-6/h6-7H,3-5H2,1-2H3/t6-,7-/m0/s1
