12
gdb 21665	3.767	1.97634	1.2978	1.6428	65.68	-0.2167	-0.0194	0.1973	856.3856	0.085461	-373.674525	-373.667529	-373.666585	-373.705483	26.225	
N	-0.0459295612	 1.3599520249	 0.1604384701	-0.605583
C	 0.0051071211	-0.0122788492	 0.0501977476	 0.237282
N	-1.0782797688	-0.7851324696	 0.0328818071	-0.261136
N	-0.5596173339	-2.0200695595	-0.0161539438	-0.103083
N	 0.7497463186	-2.1220005003	-0.0381375262	-0.273726
C	 1.1604835929	-0.8423658335	 0.0025893559	 0.170715
C	 2.5101437833	-0.4338600353	-0.0113996685	 0.245914
C	 3.6401812444	-0.017237386	-0.0295204512	-0.421532
H	 0.7631659918	 1.8340100017	-0.2138019982	 0.260775
H	-0.9173684232	 1.7668656102	-0.1468687886	 0.260924
H	-1.1516312847	-2.833695795	-0.0355117978	 0.29449
H	 4.6439927596	 0.3290307314	-0.0366974764	 0.19496
133.4277	170.1217	290.5726	324.4241	366.1707	444.0802	506.1842	551.8904	556.7715	592.3963	619.297	682.4144	695.648	763.4337	791.2529	984.0218	1090.357	1192.3834	1214.8416	1290.7356	1369.8147	1458.9299	1539.2447	1581.3705	1649.8223	2233.7597	3501.9577	3567.7592	3671.8773	3678.2058
NC1=NNN=C1C#C	Nc1n[nH]nc1C#C	
InChI=1S/C4H4N4/c1-2-3-4(5)7-8-6-3/h1H,(H3,5,6,7,8)	InChI=1S/C4H4N4/c1-2-3-4(5)7-8-6-3/h1H,(H3,5,6,7,8)
