14
gdb 97490	9.02467	0.42122	0.40446	3.7029	90.17	-0.2495	-0.0369	0.2125	2502.5535	0.098783	-399.497455	-399.487545	-399.486601	-399.536205	32.549	
O	 0.0037055059	 1.481841783	 0.0106146425	-0.406728
C	 0.0169025056	 0.0616646129	 0.0020891945	-0.243767
C	-1.3498789864	-0.4389866047	 0.0124647281	 0.327787
C	-2.4735413888	-0.8859797052	 0.020776735	-0.205833
C	-3.738788214	-1.3827629353	 0.0301745257	-0.182104
C	-4.863229238	-1.8252186119	 0.0385235075	 0.299944
C	-6.2274768518	-2.3397574888	 0.0487992543	-0.508111
C	-6.2899195945	-3.8080584803	 0.0419046189	 0.283177
N	-6.3556391001	-4.9605294783	 0.0364672533	-0.295497
H	 0.9199533549	 1.7777060194	 0.0039499947	 0.295301
H	 0.5300444972	-0.3330026416	-0.8904129363	 0.128972
H	 0.54730873	-0.3434731244	 0.8796783838	 0.128975
H	-6.7669878359	-1.9776473341	 0.9341706828	 0.18894
H	-6.783623234	-1.9686329005	-0.8224383649	 0.188943
3.4914	49.795	90.5494	106.2813	205.66	228.3215	239.5001	347.5689	364.3386	382.5139	422.4082	553.6715	571.5199	585.4216	695.0545	902.3005	932.8206	966.6797	1019.9203	1061.9049	1231.4105	1240.1067	1242.3334	1279.6482	1344.0762	1444.2197	1461.1912	1496.6385	2288.322	2372.6071	2395.9916	2962.7739	2982.2675	3020.4623	3050.7826	3818.298
OCC#CC#CCC#N	OCC#CC#CCC#N	
InChI=1S/C7H5NO/c8-6-4-2-1-3-5-7-9/h9H,4,7H2	InChI=1S/C7H5NO/c8-6-4-2-1-3-5-7-9/h9H,4,7H2
