17
gdb 84290	2.34851	1.69781	1.24674	2.0054	70.02	-0.2472	-0.0594	0.1878	1028.6519	0.134404	-458.991684	-458.982937	-458.981992	-459.024678	33.311	
C	 0.2024684577	 1.5493670092	 0.0123356518	-0.404557
C	 0.015821545	 0.0296172809	-0.0887018103	 0.222907
O	-1.3509381138	-0.3046145099	-0.230288192	-0.483999
C	 0.8734221465	-0.5950456539	-1.2251077307	 0.036181
O	 1.2801458338	 0.2692002559	-2.2673767346	-0.428915
C	 2.0920860759	-1.1103059295	-0.4975706254	-0.055693
C	 1.932905922	-1.1589472003	 0.8316178267	-0.186445
C	 0.5920547506	-0.6479144672	 1.1722483011	 0.34039
O	-0.0318697301	-0.7548944864	 2.2052841061	-0.357001
H	 1.2577006835	 1.8281036534	 0.0700415986	 0.125596
H	-0.2331052502	 2.0323748901	-0.8654440398	 0.117988
H	-0.3113461102	 1.9150381716	 0.9061632464	 0.123905
H	-1.6919940267	-0.4008651083	 0.670885287	 0.288988
H	 0.3042579676	-1.4472343277	-1.6273155121	 0.107529
H	 0.5145378851	 0.447046156	-2.822864512	 0.296049
H	 2.9705508226	-1.4245747772	-1.0502655753	 0.129916
H	 2.6294991606	-1.5498579668	 1.5620496844	 0.127162
73.4482	185.8462	232.5185	264.8385	269.4308	295.4111	312.172	338.2566	392.5704	414.875	518.7794	545.4367	643.353	694.9829	717.0868	766.2602	849.3998	895.0693	961.9143	990.0705	1003.2229	1062.323	1090.3138	1128.5099	1151.3849	1164.6662	1211.1921	1247.7643	1323.0562	1352.4628	1379.2186	1398.9599	1431.1693	1482.266	1488.67	1641.6564	1808.8507	2987.9454	3046.0241	3123.5824	3130.4072	3199.4145	3227.5624	3730.7555	3823.5791
CC1(O)C(O)C=CC1=O	C[C@@]1(O)[C@@H](O)C=CC1=O	
InChI=1S/C6H8O3/c1-6(9)4(7)2-3-5(6)8/h2-4,7,9H,1H3	InChI=1S/C6H8O3/c1-6(9)4(7)2-3-5(6)8/h2-4,7,9H,1H3/t4-,6+/m0/s1
