16
gdb 22428	2.81504	1.25348	1.01114	2.1492	70.81	-0.2222	0.0124	0.2346	1169.9551	0.121254	-474.932337	-474.923293	-474.922349	-474.96578	33.793	
O	-0.1264533141	 1.3394769844	-0.0354457844	-0.394569
N	 0.033721764	-0.0585214264	 0.0604322944	-0.27965
C	-1.0844119277	-0.6478967474	-0.0183619209	 0.388334
C	-2.5508699061	-0.2194985054	-0.0683365682	-0.371006
C	-2.9242567239	-1.6977726341	 0.0846049511	 0.370749
O	-4.0011798295	-2.0376545681	 0.8674569566	-0.448929
C	-2.3512853624	-2.5018727594	-1.0372661968	-0.420091
C	-1.4184205157	-2.0904801697	 0.1180572965	 0.2177
O	-0.7641667372	-3.0228863901	 0.8877999656	-0.447136
H	 0.7768971849	 1.653479733	 0.0775007853	 0.30573
H	-2.8139860993	 0.3667143034	 0.8167417246	 0.142199
H	-2.9028870525	 0.2950603365	-0.967007562	 0.118824
H	-4.1479801716	-2.9873268675	 0.8075770984	 0.292936
H	-2.5811779879	-3.5643589791	-0.9843187365	 0.112698
H	-2.2449389279	-2.1129836219	-2.0484065021	 0.115994
H	 0.014239277	-3.3276750383	 0.4068437885	 0.296217
100.1196	156.6289	165.2221	214.8715	232.095	249.4027	338.1704	370.435	401.5576	430.8066	489.3506	545.5863	578.2307	640.9245	709.4584	756.1415	813.536	857.6585	961.9993	971.0834	1017.0606	1037.9103	1081.4853	1105.0535	1134.7557	1159.9336	1220.2161	1274.2019	1342.8981	1394.1423	1408.863	1433.0949	1464.107	1518.4909	1787.5747	3057.5718	3087.8684	3112.1387	3177.7489	3783.5887	3820.0092	3822.3451
ON=C1CC2(O)CC12O	ON=C1C[C@@]2(O)C[C@@]12O	
InChI=1S/C5H7NO3/c7-4-1-3(6-9)5(4,8)2-4/h7-9H,1-2H2	InChI=1S/C5H7NO3/c7-4-1-3(6-9)5(4,8)2-4/h7-9H,1-2H2/t4-,5-/m1/s1
