16
gdb 9135	3.54832	0.94882	0.80287	2.0378	75.49	-0.2546	0.0127	0.2674	1430.9379	0.127212	-346.533305	-346.523681	-346.522736	-346.569417	33.235	
C	 0.1744943501	 1.2421439872	 0.5890393312	-0.365283
C	-0.2032900883	 0.2667831465	-0.5405668294	-0.317189
C	-1.4671666638	-0.4227986399	-0.3060938084	 0.068422
C	-2.5153548854	-0.978605195	-0.099324186	 0.082877
C	-3.7745886497	-1.6880385918	 0.1634702053	-0.235189
O	-3.5629393717	-3.0045947449	 0.6685155242	-0.390609
C	-4.6493121036	-0.8983713356	 1.0456350087	 0.33275
C	-5.3639839753	-0.2768852998	 1.7846232768	-0.457687
H	 1.125655754	 1.7335543498	 0.3644215465	 0.116611
H	-0.5922566079	 2.011841232	 0.7101738202	 0.132208
H	 0.2755110628	 0.7142094831	 1.5410893244	 0.128434
H	-0.2626036524	 0.809811714	-1.4924460993	 0.134235
H	 0.5936798523	-0.4768253445	-0.6688282947	 0.133902
H	-4.2978004788	-1.8477879551	-0.7883100368	 0.146582
H	-3.0802537313	-2.9150146597	 1.4985249679	 0.287941
H	-5.9985947509	 0.2761856137	 2.4322734095	 0.201998
15.1475	68.5254	112.157	174.8379	206.2231	223.6123	283.3162	322.8312	370.7556	443.727	515.5015	573.5908	599.0021	637.4345	671.0633	772.6562	784.2358	902.6934	981.9161	1036.5807	1080.1858	1103.5209	1160.6164	1258.6264	1285.351	1312.344	1349.2908	1409.566	1413.7181	1472.4167	1494.7588	1504.8571	2237.1941	2364.6659	3022.7229	3028.6344	3045.9767	3050.5374	3119.7023	3125.6219	3502.6194	3800.788
CCC#CC(O)C#C	CCC#C[C@@H](O)C#C	
InChI=1S/C7H8O/c1-3-5-6-7(8)4-2/h2,7-8H,3H2,1H3	InChI=1S/C7H8O/c1-3-5-6-7(8)4-2/h2,7-8H,3H2,1H3/t7-/m0/s1
