20
gdb 78361	2.68597	1.41142	1.1369	2.3566	80.56	-0.2243	0.0883	0.3126	1163.2896	0.170438	-403.078844	-403.070359	-403.069415	-403.11155	33.473	
C	-0.1428239039	 1.2588697956	-0.1050602334	-0.317742
N	 0.1429459471	-0.167050956	 0.0347585843	-0.127601
C	 1.578531812	-0.4875692176	-0.0866284519	-0.059715
C	 0.91757336	-0.5016987391	 1.2546274969	-0.154435
C	 0.9868582796	-2.0096257447	 1.3085361951	 0.358297
C	 1.3664452301	-2.8764573966	 2.4694034208	-0.348682
C	-0.0096758193	-2.9847800635	 1.8479507689	-0.316301
C	 1.6431251422	-2.0282856291	-0.1071506122	 0.028642
O	 0.9560869833	-2.6724782644	-1.1417772681	-0.434921
H	 0.64232644	 1.912627462	 0.3096402439	 0.100637
H	-0.2609306229	 1.4994935258	-1.1662892766	 0.126292
H	-1.0836435914	 1.4880109257	 0.4050480332	 0.125447
H	 2.2650302364	 0.227477942	-0.5241829214	 0.091336
H	 0.9967426327	 0.2132871259	 2.0650695763	 0.093822
H	 2.0760362365	-3.6795622812	 2.2947941493	 0.114597
H	 1.4488582688	-2.4165240924	 3.4494487325	 0.10992
H	-0.8588491963	-2.6043130231	 2.4061051896	 0.111036
H	-0.2239932504	-3.8529563691	 1.2328716923	 0.122909
H	 2.6632579325	-2.4212236246	-0.0939320287	 0.089018
H	 0.107525473	-2.2110996658	-1.2009641208	 0.287444
112.6621	163.7787	199.2581	221.4477	236.3224	296.9816	356.5139	435.5294	459.3995	523.3357	599.5971	644.0406	757.3429	783.3711	817.981	852.9606	874.8396	892.7782	942.9952	953.227	977.5015	993.4419	1031.2447	1051.6337	1077.6756	1110.039	1123.4333	1131.0334	1150.7028	1187.761	1206.5885	1224.1876	1239.4127	1282.4108	1292.537	1347.6895	1404.8884	1440.1691	1454.8628	1464.0063	1494.0935	1498.4452	1505.6969	2966.4848	3068.2737	3081.1856	3104.0313	3119.383	3128.0459	3179.3422	3192.6566	3198.4781	3216.5686	3745.3805
CN1C2C1C1(CC1)C2O	CN1[C@H]2[C@@H]1C1(CC1)[C@H]2O	
InChI=1S/C7H11NO/c1-8-4-5(8)7(2-3-7)6(4)9/h4-6,9H,2-3H2,1H3	InChI=1S/C7H11NO/c1-8-4-5(8)7(2-3-7)6(4)9/h4-6,9H,2-3H2,1H3/t4-,5+,6-,8?/m0/s1
