22
gdb 100304	2.32559	1.18732	1.03973	0.9031	77.15	-0.2435	0.0498	0.2933	1280.8758	0.193542	-441.442535	-441.432348	-441.431403	-441.477414	38.296	
C	-0.1613057692	 1.6007367773	-0.0129310856	-0.470195
C	-0.08709692	 0.067126957	-0.0464318985	 0.207582
C	 0.7304115938	-0.3820070435	 1.1915075693	-0.111764
O	 0.5201952502	-1.7431776804	 1.5584504329	-0.435042
C	-1.515609533	-0.5299028236	 0.0449046933	-0.074814
O	-2.0946783847	-0.3930113592	 1.3298095316	-0.433501
C	 0.566188747	-0.4956713659	-1.306464956	-0.00233
C	 0.3227955308	 0.0234886281	-2.6752726136	-0.257043
N	 1.6449158461	 0.1849889492	-2.0398848225	-0.334198
H	 0.8194504668	 2.0609650794	 0.1540383849	 0.113824
H	-0.5811763665	 2.0158253367	-0.9341136986	 0.118562
H	-0.8132625182	 1.9037362272	 0.8111150795	 0.14409
H	 1.7973547231	-0.1758907742	 1.0262018439	 0.10509
H	 0.4104065411	 0.1981343482	 2.0608158688	 0.117267
H	 0.9292183382	-2.3084108466	 0.8959488745	 0.291888
H	-2.1720314383	-0.0019101593	-0.6548787532	 0.105363
H	-1.493221076	-1.5845007202	-0.2622729353	 0.083624
H	-1.6529012656	-1.0439612748	 1.8882472843	 0.295724
H	 0.7432941105	-1.5707834114	-1.2388673867	 0.070636
H	 0.2997048522	-0.6608719982	-3.5187008504	 0.11946
H	-0.3045297932	 0.9019679763	-2.7956938047	 0.114955
H	 1.7395344449	 1.1409770481	-1.7053158578	 0.230821
74.5748	101.566	124.8546	175.1906	246.7785	261.3595	279.315	302.5527	330.6357	349.2547	379.2499	435.957	496.1735	547.1696	603.658	733.3313	821.1746	856.3965	900.0298	915.0782	941.0733	960.2923	967.1281	1025.657	1062.4252	1079.9888	1096.4984	1123.1032	1150.9064	1166.4454	1186.3773	1235.2369	1251.3316	1268.0049	1286.1885	1310.4684	1379.8392	1390.6455	1411.436	1419.7922	1424.3315	1434.1001	1490.8359	1497.1468	1500.1424	1504.8475	1522.7536	3004.5429	3009.3742	3031.5201	3071.1474	3079.0725	3095.3153	3096.8225	3115.1561	3116.4417	3197.2872	3499.923	3790.1358	3827.0407
CC(CO)(CO)C1CN1	CC(CO)(CO)[C@H]1CN1	
InChI=1S/C6H13NO2/c1-6(3-8,4-9)5-2-7-5/h5,7-9H,2-4H2,1H3	InChI=1S/C6H13NO2/c1-6(3-8,4-9)5-2-7-5/h5,7-9H,2-4H2,1H3/t5-/m1/s1
