19
gdb 85837	2.02952	1.4869	1.364	4.3071	75.43	-0.2509	0.0138	0.2647	1110.8888	0.15778	-419.205834	-419.196102	-419.195158	-419.240001	35.944	
C	-0.4233378354	 1.3814722663	-0.0282112298	-0.412517
C	-0.0057451315	-0.0745625829	 0.0460900949	 0.120133
O	 1.1415970787	-0.3718322821	-0.8005374184	-0.31976
C	 2.0121228936	-0.5969604721	 0.328238832	 0.261848
C	 2.7924832194	-1.8988260373	 0.2229075376	-0.450363
C	 2.9273291393	 0.548106138	 0.5070522601	 0.28037
N	 3.6201990619	 1.4619003428	 0.6541111754	-0.35468
C	 0.7935537959	-0.5442163081	 1.3063979801	-0.082704
N	 0.9431784781	 0.2221770064	 2.5111967837	-0.515121
H	 0.4016687686	 2.0540897323	 0.224146349	 0.135124
H	-0.7535854915	 1.6224676364	-1.0427638562	 0.136421
H	-1.2563238189	 1.57569299	 0.6563704796	 0.115643
H	-0.8450038042	-0.7262075422	-0.2248219563	 0.080689
H	 3.481459353	-1.8661268806	-0.625341856	 0.146296
H	 3.3705444487	-2.0691073275	 1.1359019931	 0.145271
H	 2.0946365406	-2.7270802392	 0.0771651756	 0.128463
H	 0.5110142634	-1.5634450954	 1.5821740958	 0.099943
H	 1.120405703	 1.2034324216	 2.3261928249	 0.247284
H	 0.1247715574	 0.1516539838	 3.1043844548	 0.237662
70.3991	136.8912	186.3172	206.5429	209.3631	245.4807	252.397	264.525	325.399	375.5424	445.527	522.3294	565.3545	610.7625	658.058	754.8363	777.3278	829.4543	879.5136	923.842	944.8731	1023.8741	1062.9395	1107.6716	1130.8577	1142.4482	1167.2108	1221.9058	1257.7488	1270.5893	1304.2406	1383.4069	1401.7469	1408.712	1431.2487	1477.9951	1483.5021	1489.5589	1497.5016	1661.016	2346.0452	3030.4574	3038.0488	3046.2817	3079.5834	3109.7504	3119.4116	3126.6426	3131.0636	3517.4657	3603.7062
CC1OC(C)(C#N)C1N	C[C@H]1O[C@@](C)(C#N)[C@H]1N	
InChI=1S/C6H10N2O/c1-4-5(8)6(2,3-7)9-4/h4-5H,8H2,1-2H3	InChI=1S/C6H10N2O/c1-4-5(8)6(2,3-7)9-4/h4-5H,8H2,1-2H3/t4-,5+,6+/m1/s1
