20
gdb 85423	2.3923	1.41165	1.11355	3.3868	75.17	-0.2361	0.0342	0.2703	1167.5911	0.170274	-440.341749	-440.332466	-440.331522	-440.375183	35.967	
C	-0.7398192432	 1.2342904472	 0.0313202837	-0.423456
C	 0.0797267006	-0.047949522	-0.0461827265	 0.039637
N	 1.1996521604	 0.044018357	-0.9733032584	-0.318237
C	 2.2752715433	-0.7439295432	-0.6534416963	 0.407467
O	 3.2615739953	-0.9168738875	-1.333648267	-0.380476
C	 1.9620352171	-1.3518317525	 0.7163193358	-0.392477
C	 0.7852249147	-0.5128745767	 1.2637352254	 0.365986
C	 1.2970953401	 0.6453022934	 2.1244197111	-0.441895
O	-0.1799106805	-1.2773718272	 1.976729648	-0.477436
H	-0.1163084905	 2.1014975356	 0.2645579353	 0.124799
H	-1.2422692087	 1.4260247669	-0.9226040108	 0.116506
H	-1.5133137863	 1.1348939421	 0.798060634	 0.137399
H	-0.5945935641	-0.8707078464	-0.3286350167	 0.092665
H	 1.111576637	 0.4238024951	-1.9034520781	 0.247365
H	 1.6340234222	-2.3863818648	 0.5665467695	 0.132904
H	 2.8499359232	-1.363424288	 1.3522000268	 0.117869
H	 1.9781563091	 1.2899050501	 1.560651141	 0.134721
H	 0.4711031127	 1.2520267375	 2.5030991981	 0.126469
H	 1.8542284609	 0.2521357402	 2.9830169492	 0.110963
H	 0.1758089067	-1.4699291467	 2.850365276	 0.279229
94.6893	120.7966	234.1106	254.2164	272.7967	285.1502	306.2285	348.3848	351.8384	429.6546	467.7126	513.1627	550.9088	557.4316	614.9536	675.3615	737.581	862.2926	896.129	949.3771	961.702	975.1534	1038.2669	1082.5078	1100.6458	1133.7357	1164.5384	1197.6206	1220.7899	1261.4229	1293.4141	1336.3	1377.4807	1396.8945	1406.1055	1412.0409	1433.6816	1464.2621	1488.2019	1491.9953	1502.8809	1511.2534	1835.4061	2984.4361	3032.4227	3041.1442	3055.7829	3098.0117	3106.2183	3114.2212	3126.8851	3127.2723	3629.5816	3816.4421
CC1NC(=O)CC1(C)O	C[C@H]1NC(=O)C[C@]1(C)O	
InChI=1S/C6H11NO2/c1-4-6(2,9)3-5(8)7-4/h4,9H,3H2,1-2H3,(H,7,8)	InChI=1S/C6H11NO2/c1-4-6(2,9)3-5(8)7-4/h4,9H,3H2,1-2H3,(H,7,8)/t4-,6+/m1/s1
