18
gdb 45751	3.0189	1.40375	1.01271	2.3872	78.3	-0.2333	-0.023	0.2103	1167.4217	0.147484	-401.937946	-401.929859	-401.928915	-401.971466	30.367	
O	 0.2399638922	 0.0951242935	 0.1171162709	-0.303694
C	 0.0573430552	 1.2817313331	 0.0711853351	 0.404187
C	-1.3010308123	 1.994964873	 0.0407279496	-0.369903
C	-0.918444279	 3.4502011758	 0.0461532117	-0.077561
C	 0.4012324796	 3.6414291875	 0.0497691444	-0.06785
C	 1.1796526875	 2.3525221025	 0.0372565953	-0.115983
N	 2.0549204963	 2.2003179863	 1.1960362186	-0.072362
C	 3.1000685859	 1.1865825621	 1.0747322461	-0.204881
C	 3.4422388265	 2.6331870327	 1.0198209297	-0.232608
H	-1.8625009665	 1.6885172474	-0.851695383	 0.137055
H	-1.9099557479	 1.6925812237	 0.9020586146	 0.142186
H	-1.6573693851	 4.2434978614	 0.0475596679	 0.104365
H	 0.8933004747	 4.6069952886	 0.062593252	 0.104382
H	 1.7404845069	 2.2267444706	-0.9106522142	 0.081037
H	 3.2919268639	 0.6063528642	 1.9718116179	 0.121229
H	 3.1519198809	 0.6194305143	 0.1487981173	 0.122812
H	 3.7306861638	 3.0417974212	 0.0523882325	 0.108604
H	 3.8888353371	 3.131729222	 1.8748949336	 0.118985
48.2767	79.1601	162.5859	214.4025	311.7196	368.8754	447.2237	494.8822	562.9989	630.8203	711.6925	763.4902	774.4183	809.1733	862.5205	898.7652	966.5626	974.1089	990.791	993.6492	1036.116	1069.6875	1109.5812	1116.1872	1130.6179	1132.242	1157.334	1174.0616	1185.1099	1276.9506	1289.1152	1311.6253	1328.3751	1386.5932	1443.2573	1492.6457	1519.5491	1682.9362	1856.382	2893.9803	3027.5889	3056.3376	3095.5675	3115.25	3183.3806	3187.6948	3202.6813	3211.0613
O=C1CC=CC1N1CC1	O=C1CC=C[C@H]1N1CC1	
InChI=1S/C7H9NO/c9-7-3-1-2-6(7)8-4-5-8/h1-2,6H,3-5H2	InChI=1S/C7H9NO/c9-7-3-1-2-6(7)8-4-5-8/h1-2,6H,3-5H2/t6-/m1/s1
