23
gdb 105363	2.49359	1.16521	0.92307	1.0095	86.06	-0.2369	0.0823	0.3192	1395.2184	0.203743	-388.255579	-388.245677	-388.244733	-388.291033	37.421	
C	 0.7393199613	-0.1872577708	 1.2742368929	-0.374699
C	 0.0832827753	-0.2070243929	-0.1105992804	-0.243232
C	-1.3798204761	-0.6111134739	-0.0645198737	 0.450957
C	-2.0240174694	-1.2629523924	-1.2611707127	-0.330497
C	-1.7409824927	-2.0654470185	-0.0056602366	-0.31354
O	-2.1856155771	 0.2068920394	 0.7547971624	-0.299148
C	-2.5332459295	 1.44741442	 0.2090732381	 0.137247
C	-3.8772171121	 1.6213695646	-0.4515542457	-0.284755
C	-3.609144417	 2.1935639582	 0.927594698	-0.293301
H	 1.7832569756	 0.1344742187	 1.2113194423	 0.10576
H	 0.2088649472	 0.4952344788	 1.9435417066	 0.130735
H	 0.7183442474	-1.1817749508	 1.7319257642	 0.116149
H	 0.1799556159	 0.7798654101	-0.5818314988	 0.09552
H	 0.6124069176	-0.9053446219	-0.7693843395	 0.094897
H	-3.0570882181	-1.0174027308	-1.4722883164	 0.119027
H	-1.4146106551	-1.4409022025	-2.1410879188	 0.109226
H	-0.9402109885	-2.7970750446	-0.0226986697	 0.108661
H	-2.5888384801	-2.3306434541	 0.6150347836	 0.119618
H	-1.6989064686	 2.0209771476	-0.189827639	 0.086993
H	-3.9616275434	 2.297702671	-1.2954172259	 0.110498
H	-4.5205426361	 0.750491778	-0.499124276	 0.1165
H	-4.0663225412	 1.6833720818	 1.7678506853	 0.124755
H	-3.5096016952	 3.266579305	 1.0456092599	 0.112627
38.1529	75.1603	120.6665	174.397	206.0247	214.7838	308.3096	317.6554	387.8573	427.8065	441.4307	561.9365	697.2953	759.424	767.9284	789.9341	813.4017	828.1336	898.4761	901.8459	940.2169	953.1722	996.1494	1009.2718	1021.581	1050.3112	1055.9227	1069.9073	1073.9188	1084.3844	1119.6284	1126.1149	1185.618	1192.2571	1194.8859	1235.4957	1254.6813	1292.6774	1343.6562	1377.6453	1401.1686	1408.7196	1452.3455	1455.856	1481.8493	1493.5066	1493.7262	1502.3625	1509.6298	3021.5543	3039.7585	3059.0217	3105.6458	3118.6466	3120.4867	3134.3681	3135.1509	3139.9099	3141.2764	3218.9457	3221.4229	3233.3701	3235.9551
CCC1(CC1)OC1CC1	CCC1(CC1)OC1CC1	
InChI=1S/C8H14O/c1-2-8(5-6-8)9-7-3-4-7/h7H,2-6H2,1H3	InChI=1S/C8H14O/c1-2-8(5-6-8)9-7-3-4-7/h7H,2-6H2,1H3
