23
gdb 116889	4.85393	0.49308	0.46853	0.9802	94.08	-0.2409	0.0401	0.281	2457.5567	0.202437	-388.257365	-388.245591	-388.244647	-388.296603	40.295	
C	-0.0086263907	 1.5033473132	 0.2974365148	-0.393766
C	-0.0924760025	-0.0190260899	 0.1573861867	-0.15764
C	-1.5093518484	-0.5475706389	-0.1792816397	-0.149664
C	-2.0241337471	-0.0563373276	-1.5477521173	-0.383978
C	-1.5380406398	-2.008808838	-0.1101226003	 0.144265
C	-1.5526636297	-3.2119593982	-0.0612530941	 0.006384
C	-1.5546877104	-4.6676421733	-0.0142666193	-0.203236
O	-2.6320848618	-5.1319392979	 0.7788022836	-0.227153
C	-2.6690725477	-6.5375549455	 0.8461480541	-0.217209
H	 0.9965335305	 1.8064155006	 0.60618983	 0.114553
H	-0.2305867504	 2.0173727622	-0.6424843509	 0.120081
H	-0.7120951257	 1.8713076659	 1.0531156878	 0.115174
H	 0.6025878836	-0.3648022174	-0.6177595015	 0.102322
H	 0.2318906532	-0.4893435435	 1.0918715737	 0.107118
H	-2.1939079299	-0.1677592932	 0.5937213907	 0.104416
H	-1.3510821831	-0.3773955832	-2.3493012153	 0.120786
H	-3.0156655864	-0.4663905345	-1.7556308684	 0.125902
H	-2.0946515257	 1.0344155323	-1.5727884919	 0.115214
H	-1.6314102024	-5.0768914467	-1.0373962614	 0.110518
H	-0.5957081353	-5.0323575809	 0.39506736	 0.110574
H	-3.5233642903	-6.8094948568	 1.4701365471	 0.129493
H	-2.7955416742	-6.9936120913	-0.1492485426	 0.102926
H	-1.7526613658	-6.9520004574	 1.2969360642	 0.10292
16.1709	64.3546	65.9678	95.5871	119.1577	175.9223	210.7989	232.4865	262.1377	297.0417	301.6139	321.637	394.8446	501.2493	527.4509	540.2932	753.4949	793.4867	853.9684	960.2907	975.7568	979.7688	1029.4396	1031.3352	1075.6748	1132.7932	1139.0935	1161.8708	1183.0566	1202.8651	1220.7591	1254.3198	1282.6982	1312.5446	1342.6146	1375.2066	1406.8952	1410.944	1415.0666	1477.5363	1483.5039	1484.3624	1492.2721	1496.9886	1498.2575	1504.4115	1510.3623	1517.2958	2368.5886	2939.4547	2955.5991	2965.3935	2994.1568	3006.4606	3031.7015	3034.3577	3042.6905	3069.7798	3100.1257	3108.3632	3115.0941	3118.7654	3123.4761
CCC(C)C#CCOC	CC[C@@H](C)C#CCOC	
InChI=1S/C8H14O/c1-4-8(2)6-5-7-9-3/h8H,4,7H2,1-3H3	InChI=1S/C8H14O/c1-4-8(2)6-5-7-9-3/h8H,4,7H2,1-3H3/t8-/m1/s1
