19
gdb 39318	2.75068	1.82011	1.3872	2.5558	73.75	-0.2366	0.0737	0.3103	973.3764	0.161902	-422.989613	-422.982576	-422.981631	-423.021203	28.414	
C	 0.0445999524	 1.4994154469	-0.3418501068	-0.322096
C	 1.2979762398	 0.7519375862	-0.0182522297	 0.10214
O	 1.8354124887	 0.9756232919	 1.2507467758	-0.252367
C	 1.9616979095	-0.2301937525	 1.9980501521	-0.100859
C	 0.6031461534	-0.8124583702	 2.3456409708	 0.128773
O	-0.1120514956	-0.00773063	 3.3055748372	-0.289148
C	-1.1567357434	 0.2919872478	 2.3607175962	-0.082963
C	-0.4988804252	-0.5803535405	 1.2661036628	-0.087943
C	-0.0215958778	 0.011650071	-0.0502389953	-0.075017
H	-0.3047535001	 2.1994486821	 0.4077464588	 0.129929
H	-0.120678102	 1.8118622965	-1.3668723659	 0.113899
H	 2.039756433	 0.5682931887	-0.7952752314	 0.084168
H	 2.559387029	-0.9718265704	 1.4440355603	 0.084988
H	 2.4953113152	 0.0303225017	 2.9167718138	 0.121446
H	 0.7147795437	-1.8472193026	 2.6962490148	 0.070726
H	-2.1372664726	-0.057354601	 2.7074230939	 0.097453
H	-1.2193918731	 1.3653249372	 2.1503441154	 0.104822
H	-1.0769632591	-1.4827868128	 1.0638976359	 0.083395
H	-0.1952233258	-0.6180646899	-0.9166634286	 0.088654
74.0299	195.1498	271.9343	339.1043	392.0835	462.3586	492.0147	560.1051	681.0863	756.9933	797.5017	808.4552	842.4759	881.1199	907.6823	960.9504	983.0438	984.8184	1022.3651	1037.1567	1056.5007	1081.9917	1100.0384	1106.1957	1122.6077	1143.7629	1162.3365	1178.486	1229.2918	1243.3152	1269.051	1303.4684	1344.1313	1347.7237	1362.4661	1379.0453	1402.0183	1412.3684	1473.9272	1480.6918	1528.5399	2978.5522	3013.1937	3020.0104	3060.7267	3093.0377	3094.9347	3100.0533	3141.0887	3156.0233	3230.5371
C1C2OCC3OCC3C12	C1[C@H]2OC[C@H]3OC[C@H]3[C@@H]12	
InChI=1S/C7H10O2/c1-4-5-2-8-7(5)3-9-6(1)4/h4-7H,1-3H2	InChI=1S/C7H10O2/c1-4-5-2-8-7(5)3-9-6(1)4/h4-7H,1-3H2/t4-,5+,6-,7-/m1/s1
