19
gdb 71712	2.28534	2.05055	1.75574	1.1107	77.78	-0.2162	0.0627	0.2789	917.2721	0.159023	-385.820566	-385.812969	-385.812024	-385.851954	31.24	
C	-0.0079304985	 1.5005459595	-0.0043233467	-0.506966
C	 0.0134365055	-0.0039446721	-0.0685731661	 0.256896
C	 0.586028599	-0.8178619339	-1.2612930912	-0.301212
C	-0.3098407735	-1.9689948307	-0.743574918	-0.141752
C	 0.1154377096	-2.2430276889	 0.7196692473	-0.063192
C	 0.356045138	-0.816235924	 1.2090135416	-0.100577
C	-1.0144265677	-1.4477260995	 1.3401671775	-0.163752
C	-1.2958609801	-0.9142231271	-0.0878183457	 0.378516
O	-2.5519585511	-0.5486094353	-0.5171565277	-0.478375
H	 1.0037418214	 1.9122093795	 0.0948329395	 0.116194
H	-0.4534078742	 1.9344922113	-0.9065410276	 0.106177
H	-0.5929610208	 1.846665396	 0.8551427302	 0.123354
H	 0.2379523445	-0.4255576021	-2.2245646629	 0.081308
H	 1.6671091993	-0.9824480656	-1.305360692	 0.091725
H	-0.6335251779	-2.8062127553	-1.3613406705	 0.06292
H	 0.6342956145	-3.1029360259	 1.122138942	 0.084538
H	 1.0613874397	-0.5651044167	 1.9913014621	 0.079729
H	-1.6400953167	-1.6398705388	 2.2007034003	 0.090133
H	-2.5033607511	-0.2972831503	-1.4466667621	 0.284337
173.0227	195.7476	219.438	249.7041	306.944	381.4715	443.0985	555.1945	581.227	625.4128	738.3076	754.0573	789.0911	807.1079	837.0538	858.5022	888.7291	911.2042	937.2532	965.6861	986.3157	993.2079	1009.6879	1032.4014	1037.7345	1074.2003	1121.3943	1150.624	1186.3446	1198.2536	1216.7487	1236.726	1260.5731	1300.048	1319.3586	1355.5192	1401.7011	1415.8984	1487.3332	1489.8953	1492.4727	3019.1062	3030.8316	3080.0232	3088.1632	3089.8988	3120.4165	3185.5815	3196.2688	3213.9029	3794.2907
CC12CC3C4C1C4C23O	C[C@@]12C[C@H]3[C@H]4[C@@H]1[C@H]4[C@@]23O	
InChI=1S/C8H10O/c1-7-2-3-4-5(7)6(4)8(3,7)9/h3-6,9H,2H2,1H3	InChI=1S/C8H10O/c1-7-2-3-4-5(7)6(4)8(3,7)9/h3-6,9H,2H2,1H3/t3-,4-,5+,6-,7+,8+/m0/s1
