14
gdb 52476	4.55023	0.55144	0.50371	4.7017	90.74	-0.2556	-0.0422	0.2134	2094.4532	0.098173	-399.503678	-399.493608	-399.492664	-399.542632	33.329	
C	-0.017310366	 1.4931178768	 0.02559967	-0.51938
C	-0.002624316	 0.0428002469	 0.0104455275	 0.26445
C	 0.0121004467	-1.1672146138	-0.0036841443	-0.19862
C	 0.0287302655	-2.5252722717	-0.0196557911	-0.241067
C	 0.0465673348	-3.7351408384	-0.0369241849	 0.372989
C	 0.0269831389	-5.1977023043	-0.0529750444	-0.236178
O	-1.27629113	-5.7474698097	 0.0071040452	-0.379405
C	 0.7707884498	-5.7075791061	-1.2334708397	 0.284727
N	 1.3297121562	-6.1187509942	-2.1567887348	-0.31566
H	 1.0015547049	 1.89527644	 0.0015630645	 0.165342
H	-0.555109029	 1.8908842895	-0.8420500767	 0.16418
H	-0.5069882835	 1.8734924346	 0.9288121963	 0.163652
H	 0.5374050804	-5.5799953962	 0.8403981412	 0.173407
H	-1.7945177027	-5.3610978733	-0.7093773289	 0.301562
3.2919	54.2222	71.9387	136.8706	180.1911	215.3624	277.4204	330.8	351.0813	387.1126	438.1909	500.0082	554.6421	575.7955	612.9246	705.1247	865.7738	994.0797	1046.0052	1047.086	1051.0787	1258.2269	1276.1262	1322.3333	1408.7461	1414.8229	1468.5693	1469.3167	2280.5302	2359.7222	2386.2492	3028.2867	3038.0276	3093.0295	3093.1031	3797.0346
CC#CC#CC(O)C#N	CC#CC#C[C@@H](O)C#N	
InChI=1S/C7H5NO/c1-2-3-4-5-7(9)6-8/h7,9H,1H3	InChI=1S/C7H5NO/c1-2-3-4-5-7(9)6-8/h7,9H,1H3/t7-/m1/s1
