14
gdb 44175	5.82534	1.05401	0.96684	2.9491	70.18	-0.2726	-0.0125	0.2601	1163.4929	0.099947	-436.607533	-436.60004	-436.599096	-436.639829	28.067	
N	-0.216112533	 1.115558016	-0.690849294	-0.536124
C	-0.0915449084	 0.0022520891	-0.1387361623	 0.435643
O	 1.0383182474	-0.6468264137	 0.3659292727	-0.268356
C	 0.2691752486	-1.8284172577	 0.7066105842	 0.043358
C	-0.3474259186	-1.7389676434	 2.1246469984	-0.107729
O	-1.5128596425	-1.03883067	 1.5857442349	-0.288504
C	-1.0233363682	-1.1418412746	 0.2320146853	-0.015312
C	-0.6938223325	-3.0024756602	 2.7456929714	 0.336211
C	-0.9617015096	-4.064574548	 3.2395738982	-0.422304
H	 0.6717076006	 1.6182995166	-0.743600918	 0.237169
H	 0.7207218348	-2.7511942715	 0.3525106801	 0.123731
H	 0.2247329729	-1.0989585578	 2.8053738758	 0.131003
H	-1.7670561917	-1.4963073064	-0.4798037811	 0.120319
H	-1.2038461097	-4.9961709785	 3.6893800444	 0.210895
77.1178	128.3668	176.2263	272.8863	359.2418	426.7273	446.9375	525.1363	643.9637	678.5108	683.605	741.4109	811.2976	872.6205	874.5488	931.5284	947.1386	965.8156	986.4042	1004.0892	1043.4546	1058.9931	1173.9633	1201.4142	1236.8087	1245.2405	1281.7594	1316.5464	1358.0801	1834.2034	2239.3428	3053.2001	3136.0729	3161.5017	3477.234	3500.4133
N=C1OC2C(OC12)C#C	[NH][C]1O[C@H]2[C@@H](O[C@@H]12)C#C	
InChI=1S/C6H5NO2/c1-2-3-4-5(8-3)6(7)9-4/h1,3-5,7H	InChI=1S/C6H5NO2/c1-2-3-4-5(8-3)6(7)9-4/h1,3-5,7H/t3-,4-,5+/m0/s1
