19
gdb 91827	3.50826	1.17028	1.01307	0.8311	82.68	-0.2355	0.0465	0.2821	1227.9683	0.158148	-385.852117	-385.843516	-385.842572	-385.885145	33.561	
C	 0.2096123152	 1.5777363073	 0.1043101046	-0.403708
C	 0.0967686407	 0.0683650141	-0.0014838798	 0.164534
C	 0.7493097955	-0.5678492025	-1.2473697474	-0.333405
C	 1.209855093	-1.9434346821	-0.7386493733	 0.139984
C	 2.4929486192	-1.9498701927	 0.0975589518	-0.339888
C	 1.1666687683	-1.8215015865	 0.7784481398	 0.060377
O	 0.7677577374	-0.5281608774	 1.1248252794	-0.28148
C	 0.8063449022	-3.1304509936	-1.4263790963	 0.194857
C	 0.4653591501	-4.1248485822	-2.0124710451	-0.408985
H	 1.2590290922	 1.8870735806	 0.0762434814	 0.121068
H	-0.3190113722	 2.0574636548	-0.7253567777	 0.118496
H	-0.2287717	 1.931756557	 1.0413639104	 0.129207
H	-0.9642103466	-0.2268882935	 0.0329025815	 0.076672
H	 0.0393807017	-0.6685517358	-2.0705690594	 0.118334
H	 1.5946551195	 0.0332381761	-1.600031169	 0.105001
H	 3.0165255044	-2.8964465287	 0.1717375198	 0.125007
H	 3.1199279206	-1.0655058114	 0.0568145664	 0.118221
H	 0.7754898125	-2.6166772488	 1.4051261765	 0.109423
H	 0.1659612762	-5.0034948449	-2.5272425936	 0.186285
79.4632	141.6045	161.1275	228.7868	298.3393	311.4336	418.8306	453.9511	480.9559	517.832	555.0687	575.146	626.113	645.5869	754.9632	809.9889	865.0749	887.2661	906.405	940.4543	953.4019	1024.4994	1029.7568	1061.0089	1084.0369	1117.5812	1148.5717	1159.8258	1205.6415	1243.8598	1277.9887	1297.8463	1351.9498	1384.1168	1398.5355	1412.4146	1465.3055	1483.0364	1492.3835	1499.1833	2234.0087	2972.07	3040.06	3045.1254	3112.9176	3116.5017	3120.1984	3131.4936	3162.3157	3229.588	3505.153
CC1CC2(CC2O1)C#C	C[C@H]1C[C@]2(C[C@H]2O1)C#C	
InChI=1S/C8H10O/c1-3-8-4-6(2)9-7(8)5-8/h1,6-7H,4-5H2,2H3	InChI=1S/C8H10O/c1-3-8-4-6(2)9-7(8)5-8/h1,6-7H,4-5H2,2H3/t6-,7+,8-/m0/s1
