20
gdb 103506	3.03222	1.32178	1.19056	2.7647	79.61	-0.2295	0.0166	0.2461	1124.6296	0.171181	-403.121328	-403.112607	-403.111662	-403.154249	33.912	
C	-0.0589953194	 1.5821734692	 0.0413500733	-0.424615
C	-0.0085747803	 0.0454855118	-0.0020420517	 0.254098
C	-1.430750264	-0.5372508874	-0.0286309994	-0.103992
O	-2.0843401589	-0.0772174629	-1.2018407023	-0.426896
C	 0.8003245242	-0.473588177	-1.1866965326	-0.095883
C	 1.7943763651	-1.2868178832	-0.8253035703	-0.074221
C	 1.860625696	-1.4041239177	 0.6608439577	-0.085538
N	 2.1523680467	-0.0931208489	 1.315686477	-0.339743
C	 0.7564223102	-0.5580655614	 1.1860086124	-0.106327
H	 0.9523580566	 1.9864517755	 0.1144870708	 0.135289
H	-0.5439632135	 1.9774916565	-0.8543271535	 0.126798
H	-0.6319368376	 1.9240554246	 0.9112501269	 0.100469
H	-1.3732512453	-1.6366327005	-0.0105418216	 0.086249
H	-1.9696814489	-0.2132760134	 0.8785235941	 0.078659
H	-2.9547054538	-0.4830195645	-1.2413556263	 0.28818
H	 0.5646043001	-0.1706986488	-2.1998712428	 0.104007
H	 2.4953602141	-1.7710468591	-1.4948520131	 0.095262
H	 2.1959751175	-2.312980806	 1.149203718	 0.086253
H	 2.4547177669	-0.2695546982	 2.2728726434	 0.224996
H	 0.2096891142	-0.8165263886	 2.0885256902	 0.076956
105.9892	162.7771	178.1714	224.1693	232.7493	275.0175	344.126	378.6934	409.4057	471.9728	592.0209	657.9611	740.6211	774.8917	802.7687	847.332	856.0184	918.4693	925.1012	949.1904	958.5045	977.2739	995.3229	1074.15	1076.6006	1101.2634	1139.7341	1150.2548	1173.7674	1193.6971	1211.6117	1248.4836	1286.284	1286.6952	1328.8863	1389.0876	1395.1282	1413.9725	1454.6898	1496.4828	1497.1576	1518.8487	1664.6109	2949.3541	2995.9252	3035.2229	3108.0986	3140.5373	3143.6993	3166.6677	3193.6586	3218.3577	3471.249	3837.2349
CC1(CO)C=CC2NC12	C[C@@]1(CO)C=C[C@H]2N[C@@H]12	
InChI=1S/C7H11NO/c1-7(4-9)3-2-5-6(7)8-5/h2-3,5-6,8-9H,4H2,1H3	InChI=1S/C7H11NO/c1-7(4-9)3-2-5-6(7)8-5/h2-3,5-6,8-9H,4H2,1H3/t5-,6-,7+/m1/s1
