18
gdb 108031	3.96266	1.39903	1.28887	2.6953	73.52	-0.2235	0.0635	0.287	1013.4113	0.149101	-401.878995	-401.871794	-401.87085	-401.910679	28.843	
O	-0.0375941494	 1.3102832801	-0.4016143362	-0.420463
C	-0.0517101045	-0.0347732748	 0.0640570735	-0.203457
C	-1.4728220366	-0.5129372596	 0.0734148048	 0.342366
C	-2.5418940397	 0.1297827003	 0.9421398628	-0.222979
N	-3.7312347554	-0.6656621089	 0.6160278573	-0.126098
C	-3.6431492614	-1.100610725	-0.7895915003	-0.065384
C	-3.3144589012	-2.045927162	 0.3113733683	-0.069275
C	-1.8060921708	-1.983826691	-0.0675148385	-0.15992
C	-2.1424234127	-1.0180845275	-1.1871410399	-0.122273
H	 0.8581206389	 1.6483544446	-0.3088044881	 0.287607
H	 0.5585249108	-0.6864524499	-0.5813215384	 0.08671
H	 0.3652134767	-0.1021867516	 1.0819208041	 0.090686
H	-2.3237892473	 0.04861044	 2.0127814302	 0.099436
H	-2.7095056754	 1.180082355	 0.689245947	 0.120391
H	-4.5049546691	-1.0120226586	-1.4382221095	 0.092687
H	-3.853377883	-2.8817336243	 0.7384610189	 0.092465
H	-1.0891007396	-2.7923124767	-0.0382936148	 0.086211
H	-1.7273684405	-0.93126601	-2.1807688313	 0.091291
85.5268	156.4409	244.1667	293.6145	362.605	445.4996	550.692	636.3429	730.0233	734.4606	784.1409	795.8515	811.88	847.8472	864.9871	907.8632	926.3171	951.9725	972.3599	1006.0715	1023.9975	1040.9687	1057.4652	1072.2011	1087.9319	1141.0361	1188.5592	1197.3778	1211.381	1228.1759	1238.6545	1265.492	1282.5815	1307.8167	1341.9199	1410.0833	1469.1371	1499.3357	1515.2259	2963.5752	2990.558	3048.0373	3105.196	3188.8059	3201.2394	3210.5621	3224.6466	3827.211
OCC12CN3C4C3C1C24	OC[C@]12CN3[C@@H]4[C@H]3[C@H]1[C@H]24	
InChI=1S/C7H9NO/c9-2-7-1-8-5-3(7)4(7)6(5)8/h3-6,9H,1-2H2	InChI=1S/C7H9NO/c9-2-7-1-8-5-3(7)4(7)6(5)8/h3-6,9H,1-2H2/t3-,4+,5-,6+,7-,8?
