14
gdb 27082	3.39847	1.14491	0.86807	5.5661	66.51	-0.2157	0.0044	0.2201	1234.4112	0.101927	-470.052815	-470.044471	-470.043527	-470.086802	29.093	
N	 0.0835117711	 1.3950143044	-0.1503656135	-0.616873
C	-0.0155335427	 0.005617291	 0.0225513691	 0.165674
C	-1.0529233483	-0.8784847985	 0.1866747237	 0.327455
O	-2.3678994306	-0.5050289141	 0.297525849	-0.23371
C	-3.3258305287	-1.3667139594	-0.1524318356	 0.151727
O	-4.4854329037	-1.1115327187	-0.042484691	-0.269244
N	-0.6249707013	-2.170089016	 0.2550833627	-0.326376
C	 0.6857596754	-2.0962088806	 0.1352081545	 0.009906
N	 1.1019401321	-0.8112129108	-0.0090321117	-0.260921
H	-0.7426412465	 1.7537110018	-0.6159825879	 0.259967
H	 0.1692081112	 1.8898455495	 0.7334306015	 0.2533
H	-2.8982351348	-2.2753008754	-0.5997977413	 0.124158
H	 1.3672108585	-2.9320387202	 0.1631184896	 0.140892
H	 2.0432495282	-0.481491653	-0.1465894992	 0.274045
53.9863	105.6915	122.0716	159.6211	261.8747	282.4865	375.0799	487.5261	526.3584	550.135	665.377	703.5839	729.7588	784.5379	823.5976	870.0726	962.009	1042.8374	1091.377	1123.2289	1156.9066	1228.3295	1282.4465	1322.874	1397.3808	1412.425	1473.7372	1512.9153	1648.5778	1673.6976	1865.9877	3050.9971	3261.2615	3490.4522	3578.9653	3662.5292
NC1=C(OC=O)N=CN1	Nc1c(OC=O)nc[nH]1	
InChI=1S/C4H5N3O2/c5-3-4(9-2-8)7-1-6-3/h1-2H,5H2,(H,6,7)	InChI=1S/C4H5N3O2/c5-3-4(9-2-8)7-1-6-3/h1-2H,5H2,(H,6,7)
