20
gdb 89893	4.0997	1.12308	1.07007	0.7176	79.23	-0.2292	0.0725	0.3017	1216.0232	0.170971	-403.090177	-403.081986	-403.081042	-403.123204	32.051	
C	 0.490070136	 1.5152337779	 0.0548649109	-0.395322
C	-0.0488569226	 0.1089379063	-0.1127567713	 0.15183
C	 0.4674099018	-0.7392037708	-1.2952188736	-0.369591
C	 1.0023127809	-1.6850259108	-0.210051042	 0.496562
C	 0.5972015424	-3.1913132318	-0.0548842243	-0.300838
C	 2.0869181468	-3.5408691398	 0.0167322918	-0.038146
N	 2.6795789243	-3.0416867404	-1.2485171158	-0.340235
C	 2.470798449	-2.1097486369	-0.1075903906	-0.142182
O	 0.5325763247	-0.8221695788	 0.8412132251	-0.344134
H	 1.5782571901	 1.5309606783	-0.0628000055	 0.115477
H	 0.049182146	 2.1849563913	-0.6919911081	 0.115057
H	 0.2462735581	 1.9036921535	 1.048795626	 0.125299
H	-1.1428099398	 0.1094645724	-0.0158667597	 0.073937
H	-0.2952322544	-1.1592727164	-1.952302014	 0.109735
H	 1.2418615013	-0.2650314154	-1.9020661502	 0.110561
H	 0.079260289	-3.3247867043	 0.8975830902	 0.116966
H	 0.0312241686	-3.6520088127	-0.8687952014	 0.100208
H	 2.5593387513	-4.3406931873	 0.5730337375	 0.09344
H	 3.6676135582	-3.2956900007	-1.241582554	 0.228888
H	 3.2885660283	-1.5483642937	 0.3281196489	 0.092488
51.6492	124.7856	211.6902	234.5715	339.5885	349.7975	389.0781	413.3828	497.8738	544.5881	740.2142	785.3874	822.1559	834.1351	846.025	891.1364	910.876	924.2966	935.7472	941.8113	971.5538	1000.3095	1063.0599	1081.3358	1092.7172	1103.5651	1136.7232	1161.7535	1183.1929	1194.4739	1204.1572	1236.634	1267.1833	1298.9283	1321.4979	1337.3109	1375.3747	1392.1081	1411.0998	1460.8059	1482.3603	1487.8842	1495.2243	3009.4804	3031.4212	3060.5217	3076.3066	3103.6324	3110.2918	3127.1497	3131.7911	3184.4143	3198.3489	3466.1297
CC1CC2(CC3NC23)O1	C[C@H]1C[C@]2(C[C@H]3N[C@@H]23)O1	
InChI=1S/C7H11NO/c1-4-2-7(9-4)3-5-6(7)8-5/h4-6,8H,2-3H2,1H3	InChI=1S/C7H11NO/c1-4-2-7(9-4)3-5-6(7)8-5/h4-6,8H,2-3H2,1H3/t4-,5+,6+,7+/m0/s1
