16
gdb 23867	2.5567	1.80645	1.78781	0.899	53.21	-0.2555	0.0766	0.3321	852.5273	0.125618	-511.441709	-511.432971	-511.432027	-511.474486	32.393	
C	-0.0417699626	 1.5450206483	 0.0243071449	-0.411391
C	-0.0167896245	 0.0107971462	 0.0402337666	 0.102784
C	 0.7317189953	-0.5166770107	 1.2715846614	-0.411393
N	-1.3942761317	-0.4838811141	 0.0767927748	-0.531069
C	 0.7024588605	-0.4872552134	-1.2290706636	 0.273545
F	 1.9725566818	-0.0569408376	-1.3047763998	-0.081571
F	 0.7340158075	-1.831843315	-1.2780769825	-0.089064
F	 0.073657497	-0.0701673389	-2.3435030333	-0.089065
H	 0.9708040347	 1.9544931326	 0.0036395001	 0.129715
H	-0.5781233494	 1.9186353105	-0.8526846528	 0.124387
H	-0.5539440179	 1.9027125396	 0.9199546368	 0.131545
H	 0.2235306474	-0.1695955882	 2.1736541623	 0.131546
H	 0.7458401148	-1.6103225796	 1.2822545578	 0.124382
H	 1.7652533949	-0.1630697804	 1.2847115781	 0.12972
H	-1.8959907156	-0.1724629278	-0.750351717	 0.232964
H	-1.3979784221	-1.4998918717	 0.0527709163	 0.232966
79.4554	191.3628	219.3513	230.3668	246.9922	319.989	331.5731	343.5493	357.6367	439.2566	458.0386	572.3104	577.9322	592.9961	753.5395	865.6249	885.7643	949.7827	1009.6436	1021.4802	1070.3093	1155.635	1192.0997	1195.4529	1265.309	1312.89	1352.3873	1397.2382	1418.4238	1483.1007	1486.9808	1496.9504	1509.3798	1666.3641	3050.1623	3054.2155	3123.0155	3125.3151	3136.8384	3141.7566	3489.6211	3569.7482
CC(C)(N)C(F)(F)F	CC(C)(N)C(F)(F)F	
InChI=1S/C4H8F3N/c1-3(2,8)4(5,6)7/h8H2,1-2H3	InChI=1S/C4H8F3N/c1-3(2,8)4(5,6)7/h8H2,1-2H3
