16
gdb 26589	2.35637	1.87624	1.05191	3.0883	76.06	-0.2088	-0.0227	0.1861	1078.4393	0.126646	-434.157167	-434.149038	-434.148094	-434.189606	30.904	
C	-0.0108632226	 1.5388141049	 0.0318860585	-0.524351
C	-0.0014915287	 0.0358118589	 0.0144053519	 0.085393
C	-1.1603261108	-0.7155802012	 0.0529976604	 0.30285
N	-2.4003243063	-0.1399805191	 0.1396635466	-0.560885
N	-1.1973602182	-2.094958048	 0.0466038109	-0.342654
C	-0.0514271111	-2.6937886218	 0.0056716862	 0.103553
N	 1.1352114569	-2.055628653	-0.0314947275	-0.342333
C	 1.266678527	-0.6400040644	-0.0326486555	 0.364627
O	 2.3842690794	-0.1480740973	-0.0710187808	-0.40602
H	 1.0179703498	 1.902203474	 0.0350605486	 0.160339
H	-0.5136639346	 1.9613041578	-0.8494927642	 0.115098
H	-0.5211372311	 1.9338924391	 0.9195173241	 0.124531
H	-2.5048350554	 0.8206622709	-0.139869222	 0.260077
H	-3.1744229988	-0.752349482	-0.0618517205	 0.260903
H	-0.0163813539	-3.7806396396	-0.0020747194	 0.1346
H	 2.0048597485	-2.5694309192	-0.0640023572	 0.264273
117.3104	145.3617	191.6482	259.7891	285.1961	358.2448	404.9787	480.0934	502.6376	512.1851	544.8018	552.9461	667.6428	691.4716	748.0806	794.164	891.4501	932.591	960.2413	1033.4857	1059.7383	1102.0522	1180.384	1222.7835	1294.9109	1378.6371	1401.9709	1449.2258	1467.8562	1495.9597	1500.0488	1590.4621	1637.275	1677.5625	1773.969	3002.6601	3049.4595	3138.1515	3162.7858	3600.0447	3608.6993	3722.3165
CC1=C(N)N=CNC1=O	Cc1c(N)nc[nH]c1=O	
InChI=1S/C5H7N3O/c1-3-4(6)7-2-8-5(3)9/h2H,1H3,(H3,6,7,8,9)	InChI=1S/C5H7N3O/c1-3-4(6)7-2-8-5(3)9/h2H,1H3,(H3,6,7,8,9)
