15
gdb 25019	4.16217	1.11161	0.93099	3.539	71.56	-0.1979	0.0079	0.2058	1208.6678	0.113026	-453.940209	-453.932363	-453.931419	-453.973146	28.897	
N	-0.0002536982	 1.2786325633	-0.0980652193	-0.603905
C	 0.0210750971	 0.015171926	-0.0331302704	 0.464828
N	-1.0357450021	-0.8117991584	 0.2918410198	-0.330227
C	-0.6223195716	-2.137088381	 0.2722037759	-0.197045
C	 0.6729526111	-2.1391603561	-0.0760302445	 0.363663
O	 1.0908411515	-0.8285122859	-0.2712894165	-0.248245
C	 1.6322434857	-3.2218718871	-0.2820036433	-0.053378
C	 2.8753039076	-3.0459136505	-1.0499984134	-0.179882
O	 2.9082283281	-3.117892392	 0.3737950955	-0.230596
H	 0.9111548503	 1.6444627739	-0.3583725295	 0.227679
H	-1.9440048907	-0.4562343444	 0.5274870683	 0.279079
H	-1.2824186971	-2.9555500576	 0.5021941362	 0.15519
H	 1.1830308385	-4.2133227845	-0.236560212	 0.102456
H	 3.3000304771	-3.8991994827	-1.5775829398	 0.118219
H	 3.1003511728	-2.0689436129	-1.4722326668	 0.132163
79.1747	119.2473	149.168	175.5349	333.1116	396.8721	448.6602	485.0778	623.1309	660.4277	712.4384	740.4398	762.2945	770.6242	824.5417	898.9721	940.0724	969.3432	995.7236	1050.6466	1090.6222	1100.7673	1158.7379	1162.8099	1216.8915	1264.6476	1298.5356	1365.927	1408.9214	1436.5809	1520.1138	1716.6991	1796.7188	3087.4491	3121.9675	3182.3071	3289.0401	3548.1286	3710.3309
N=C1NC=C(O1)C1CO1	[NH][C@H]1NC=C(O1)[C@H]1CO1	
InChI=1S/C5H6N2O2/c6-5-7-1-3(9-5)4-2-8-4/h1,4H,2H2,(H2,6,7)	InChI=1S/C5H7N2O2/c6-5-7-1-3(9-5)4-2-8-4/h1,4-7H,2H2/t4-,5+/m1/s1
