21
gdb 89689	3.58085	1.17902	1.07577	0.8175	89.45	-0.2517	0.0492	0.3009	1216.114	0.183372	-349.922034	-349.913722	-349.912778	-349.95438	33.866	
C	-0.1529988482	 1.5195438458	 0.0150293057	-0.41725
C	 0.0603431977	 0.0068560278	 0.0417110995	 0.045818
C	 1.0003208686	-0.5490260974	-1.0821065221	-0.281516
C	 2.0398433531	-1.3015204589	-0.2090941508	 0.275952
C	 1.1108872267	-2.0024638549	 0.8404526332	-0.264884
C	 0.8247962066	-0.537981556	 1.2715563462	-0.050096
C	 2.3112445049	-0.250678671	 0.9187471839	-0.26199
C	 3.1055102868	-1.9980255372	-0.8832555275	 0.056886
C	 3.9955769508	-2.579611144	-1.446714128	-0.356079
H	 0.7927443895	 2.0667626843	 0.088573993	 0.115706
H	-0.6392086453	 1.829291937	-0.916305188	 0.115444
H	-0.7905470003	 1.8425793012	 0.8454537146	 0.11186
H	-0.9202783363	-0.4797007171	-0.0165453755	 0.068318
H	 0.4912371752	-1.2220173392	-1.7766980698	 0.103551
H	 1.471461492	 0.2468813468	-1.6664729721	 0.102854
H	 0.2809574731	-2.6031318931	 0.4565294625	 0.092776
H	 1.6820802008	-2.5679219998	 1.5792294834	 0.104206
H	 0.416145954	-0.3019132052	 2.2544280901	 0.060231
H	 3.005354137	-0.6303638884	 1.6707762729	 0.105345
H	 2.6033487835	 0.7564543643	 0.6108950787	 0.096205
H	 4.7818981697	-3.092598035	-1.9421971301	 0.176664
123.0639	140.1289	215.8547	228.0812	289.3865	401.3389	459.9642	474.271	514.7414	529.352	550.1327	619.7447	629.6606	650.6152	794.2282	829.8251	840.3118	897.5942	902.5742	933.4668	960.7623	986.2801	993.8698	1022.9484	1048.3025	1083.4339	1125.9632	1146.1424	1152.4174	1180.9	1211.9798	1221.8233	1238.6648	1240.9991	1277.0084	1318.504	1330.4624	1380.682	1412.5681	1484.9032	1493.6425	1499.9568	1501.0869	1525.5914	2232.8358	3028.0233	3029.1609	3053.5184	3055.8036	3065.7171	3093.1796	3098.318	3103.9735	3112.0506	3122.8937	3128.6237	3503.7616
CC1CC2(CC1C2)C#C	C[C@H]1C[C@@]2(C[C@H]1C2)C#C	
InChI=1S/C9H12/c1-3-9-4-7(2)8(5-9)6-9/h1,7-8H,4-6H2,2H3	InChI=1S/C9H12/c1-3-9-4-7(2)8(5-9)6-9/h1,7-8H,4-6H2,2H3/t7-,8-,9+/m0/s1
