21
gdb 61299	5.30407	0.67979	0.63383	1.868	85.34	-0.26	0.0515	0.3115	1758.0742	0.179666	-387.039068	-387.028857	-387.027913	-387.074962	37.138	
C	 0.0283198367	 1.5433874546	-0.0877659162	-0.390128
C	 0.0345448626	 0.0129539841	 0.0047288371	 0.026375
C	-1.4051889891	-0.5540689209	 0.0888657932	-0.366758
C	-2.1430048575	-0.1138838139	 1.266579502	 0.299927
C	-2.7332205731	 0.2498615167	 2.2488993723	-0.439609
C	 0.7775416045	-0.642713187	-1.1746039588	-0.221153
C	 2.2531070015	-0.3247903124	-1.2202485024	 0.084979
C	 3.010375675	-0.2938819877	-2.4775859765	-0.182795
O	 2.6448476846	 0.9172805894	-1.8147936847	-0.229265
H	 1.0432805078	 1.9456275702	-0.1094043885	 0.137726
H	-0.4740637914	 1.8731643965	-1.0051111965	 0.111032
H	-0.5031979018	 1.9780444128	 0.7630101358	 0.125642
H	 0.5488789603	-0.2771659811	 0.931317276	 0.084079
H	-1.9571401448	-0.2654360493	-0.8166060247	 0.127204
H	-1.3640631652	-1.6511884909	 0.0828719258	 0.123496
H	-3.2637567692	 0.5685727786	 3.1115180146	 0.193141
H	 0.6691742241	-1.7344517667	-1.1095246737	 0.097635
H	 0.3215075045	-0.3319767894	-2.1233646197	 0.102093
H	 2.8064730734	-0.5635686868	-0.3090056665	 0.09021
H	 4.0745904464	-0.525604988	-2.4790410561	 0.113933
H	 2.4935495107	-0.4857681988	-3.4174028325	 0.112236
49.3297	65.1992	102.327	123.2992	198.8449	244.0236	279.2254	328.7652	349.9817	383.5882	432.8458	449.7112	566.5817	614.4675	635.9685	789.5511	838.9739	855.1487	892.5084	909.616	930.3738	965.6709	986.2854	1052.2668	1082.6405	1123.5003	1130.6352	1153.6397	1158.4794	1179.2016	1225.9568	1271.9418	1287.4982	1297.4435	1341.8435	1371.7879	1378.0975	1418.5792	1447.7833	1463.1934	1473.7084	1497.3982	1503.3659	1530.2298	2236.3308	3005.383	3009.5446	3014.3885	3036.4	3043.318	3057.2406	3080.2228	3087.0512	3105.735	3133.8134	3166.6188	3506.908
CC(CC#C)CC1CO1	C[C@@H](CC#C)C[C@H]1CO1	
InChI=1S/C8H12O/c1-3-4-7(2)5-8-6-9-8/h1,7-8H,4-6H2,2H3	InChI=1S/C8H12O/c1-3-4-7(2)5-8-6-9-8/h1,7-8H,4-6H2,2H3/t7-,8-/m0/s1
