20
gdb 13617	3.25686	1.24581	1.01826	1.0376	71.21	-0.255	0.0666	0.3216	1205.346	0.174777	-386.120827	-386.111222	-386.110278	-386.155442	34.421	
C	 1.5487061164	 2.6634226346	 0.4738327109	-0.413301
C	 0.7085238775	 1.3780937874	 0.4655065989	-0.024151
C	 0.7631185425	 0.6577956867	-0.8928636969	-0.069109
O	 0.2715167261	 1.442836096	-1.9663028468	-0.421631
C	 1.181330561	 0.4413052486	 1.5572928815	 0.06452
O	 0.9005971652	 0.8091133171	 2.91299246	-0.271505
C	 0.3120206026	-0.3950601992	 2.404820202	 0.074267
C	-1.1919841379	-0.4532590359	 2.3209086032	-0.42188
H	 2.6023837927	 2.4509282556	 0.2533957408	 0.110623
H	 1.1809730237	 3.3820596193	-0.26554617	 0.109597
H	 1.50181381	 3.1432058007	 1.4549355736	 0.140226
H	-0.3350834406	 1.650051084	 0.6532484434	 0.086353
H	 1.7927930964	 0.3145652917	-1.0897164613	 0.084889
H	 0.1274032788	-0.2335123733	-0.8629199384	 0.112006
H	 0.8986436265	 2.1540658137	-2.1265403122	 0.285536
H	 2.2063485595	 0.085013645	 1.4141619436	 0.081435
H	 0.7678195658	-1.2999619431	 2.8141736882	 0.086139
H	-1.615103235	 0.4629752101	 1.9052327302	 0.132666
H	-1.507114192	-1.2990794558	 1.7000630305	 0.122808
H	-1.6167853394	-0.5973209732	 3.3199173087	 0.130512
51.0477	95.6104	138.4994	187.4492	203.7057	242.5381	260.954	306.455	373.002	387.9769	409.6851	512.6712	563.3798	776.6909	821.2536	866.6358	912.8379	938.6865	984.4114	1002.4236	1064.7423	1084.1144	1109.1248	1131.2319	1145.669	1180.5081	1196.5611	1230.6544	1283.3198	1305.2553	1352.9148	1390.0702	1402.5803	1404.6937	1420.9209	1423.486	1469.9087	1489.9443	1496.8121	1500.3661	1510.2606	1514.7226	2964.4373	3025.3119	3039.2915	3051.065	3062.2921	3073.7759	3078.4897	3094.9822	3098.9819	3117.5679	3137.9855	3830.2423
CC(CO)C1OC1C	C[C@@H](CO)[C@H]1O[C@H]1C	
InChI=1S/C6H12O2/c1-4(3-7)6-5(2)8-6/h4-7H,3H2,1-2H3	InChI=1S/C6H12O2/c1-4(3-7)6-5(2)8-6/h4-7H,3H2,1-2H3/t4-,5-,6+/m0/s1
