19
gdb 54658	3.21905	1.26575	0.98191	3.0773	82.75	-0.2367	-0.0457	0.191	1223.7404	0.159272	-385.915021	-385.906694	-385.90575	-385.948276	31.806	
C	-0.0270503626	 1.5057357488	 0.0003914136	-0.491494
C	 0.0269235394	-0.0114901738	 0.0147007869	 0.288349
O	 1.0854646768	-0.6084952682	 0.032938799	-0.310578
C	-1.2739312432	-0.7349876727	 0.0035251615	 0.24047
C	-1.3715763926	-2.0742949659	 0.0498186196	-0.14735
C	-2.8010374107	-2.5519804644	 0.005199504	-0.27752
C	-3.6156582932	-1.2582220477	 0.0369847324	-0.040986
C	-3.4679243879	-0.3526026988	 1.2308094466	-0.279647
C	-2.6312065447	-0.0988659968	-0.0090014825	-0.161577
H	 0.9843917112	 1.9075755694	 0.0655347829	 0.138096
H	-0.5017376709	 1.8611816249	-0.9219277503	 0.137269
H	-0.634378221	 1.8790492502	 0.8323788691	 0.140104
H	-0.5162897149	-2.7346739026	 0.1284834592	 0.123551
H	-2.9895845902	-3.12981868	-0.9103006799	 0.118008
H	-3.0361249559	-3.2247159681	 0.8405127664	 0.119179
H	-4.5456275595	-1.2146280597	-0.5169985435	 0.090102
H	-4.2874244447	 0.3292795652	 1.4325594867	 0.112278
H	-2.9586959809	-0.7237304625	 2.1150003786	 0.114022
H	-2.8168342543	 0.7937391028	-0.5954426804	 0.087726
57.2247	138.7352	163.2404	190.4187	285.657	353.72	373.7389	443.8389	504.9972	611.7693	654.2505	709.0207	779.4216	811.0375	833.7183	844.1436	902.9897	941.1	970.7783	988.2046	1006.5478	1044.6947	1052.563	1068.2146	1082.5457	1098.1136	1102.6634	1183.8372	1207.178	1251.8027	1260.5227	1323.689	1365.2768	1376.7026	1385.5054	1463.1948	1465.1622	1473.8758	1481.3952	1650.2929	1774.9765	3012.3372	3033.1143	3040.0863	3093.0687	3122.3134	3153.9635	3171.0865	3181.2743	3212.2286	3216.2645
CC(=O)C1=CCC2CC12	CC(=O)C1=CC[C@H]2C[C@@H]12	
InChI=1S/C8H10O/c1-5(9)7-3-2-6-4-8(6)7/h3,6,8H,2,4H2,1H3	InChI=1S/C8H10O/c1-5(9)7-3-2-6-4-8(6)7/h3,6,8H,2,4H2,1H3/t6-,8+/m0/s1
