20
gdb 108265	2.38162	1.64391	1.36156	3.7393	78.45	-0.2432	0.0155	0.2587	1062.1204	0.172147	-403.129014	-403.120778	-403.119834	-403.161721	31.871	
C	 0.0169987514	 1.4560594495	 0.2463315442	-0.392289
C	-0.1535379831	-0.0326101799	-0.0765853829	-0.247074
C	 0.6066959599	-0.5509026153	-1.3103307698	 0.190446
C	 0.3924301505	 0.3049154748	-2.6001787795	-0.166171
O	 1.7362754253	 0.9186673048	-2.4251154243	-0.279132
C	 2.00770464	-0.0760083355	-1.5237029908	 0.415562
N	 3.0159689681	-0.7807490993	-1.2463728436	-0.32184
C	 2.388122023	-2.0137196269	-0.6693109818	-0.15881
C	 0.9208884762	-2.0602445355	-1.2454122088	-0.31482
H	 1.0641685595	 1.7000742837	 0.4493219575	 0.135629
H	-0.3205550357	 2.1029183672	-0.5686891739	 0.123117
H	-0.566273043	 1.7177173283	 1.1341943479	 0.115904
H	 0.1700796666	-0.6195608556	 0.7907445397	 0.110172
H	-1.2180457933	-0.2642200679	-0.2152989357	 0.103532
H	 0.3686873207	-0.2551242048	-3.5385843053	 0.126758
H	-0.3875755207	 1.0671206835	-2.5733834522	 0.123135
H	 2.9763527448	-2.8804819137	-0.9805670809	 0.116614
H	 2.3988049124	-1.9900161212	 0.4279902427	 0.108552
H	 0.227701336	-2.6369509349	-0.6268869789	 0.101027
H	 0.9449711013	-2.5076602213	-2.2444436336	 0.109688
83.4797	153.291	170.6734	250.7441	276.353	319.364	345.2704	411.8048	511.1524	641.9677	676.1524	697.4931	766.7725	788.3029	845.7377	870.0709	887.653	925.9776	949.8456	977.0695	987.0979	1031.491	1057.3589	1123.2305	1144.7788	1147.3253	1188.6143	1206.4165	1220.19	1265.91	1294.7953	1308.9829	1315.0977	1353.815	1386.1854	1417.2019	1479.7852	1485.4552	1491.0809	1499.089	1505.0358	1510.9351	1767.5377	3018.9488	3026.8617	3043.1801	3050.1847	3058.0403	3064.966	3094.3047	3106.0892	3110.5468	3115.4496	3138.4482
CCC12COC1=NCC2	CC[C@@]12CO[C]1[N]CC2	
InChI=1S/C7H11NO/c1-2-7-3-4-8-6(7)9-5-7/h2-5H2,1H3	InChI=1S/C7H11NO/c1-2-7-3-4-8-6(7)9-5-7/h2-5H2,1H3/t7-/m1/s1
