18
gdb 39856	3.10721	1.87371	1.52294	0.9543	74.38	-0.2313	0.0637	0.295	907.183	0.150495	-401.867897	-401.86154	-401.860596	-401.898332	27.048	
C	-0.003602232	 1.443972076	-0.0344125891	-0.333357
N	 1.2290160517	 0.6173001411	 0.0498316093	-0.391765
C	-0.0833763566	-0.0225382982	 0.0174713306	 0.452957
C	-0.5521008925	-0.9353579259	 1.1481578517	-0.181249
C	 0.3250530716	-2.1868191644	 0.8727617175	-0.246114
C	-0.5299673316	-2.3176464386	-0.4028363341	-0.086101
C	-1.7228897834	-1.6487430342	 0.3120802784	 0.11397
O	-2.0621450142	-0.8384599852	-0.8225405538	-0.29129
C	-0.6296129551	-0.9001835587	-1.103979004	-0.03231
H	-0.2110107782	 2.0342215144	 0.8538205796	 0.121282
H	-0.2380546957	 1.9407710151	-0.9727572497	 0.114827
H	 1.6714281962	 0.5694084284	-0.8657887316	 0.229086
H	-0.6883026306	-0.5162922912	 2.1424067182	 0.074452
H	 1.4018803521	-2.0240727822	 0.7926018347	 0.112154
H	 0.118182457	-3.0116673754	 1.5602940692	 0.09982
H	-0.6104788103	-3.2080655125	-1.0233003055	 0.079592
H	-2.5553068953	-2.13592148	 0.8168924267	 0.088381
H	-0.365526883	-0.6978368085	-2.1423922481	 0.075664
163.9177	266.2323	301.0277	412.2062	457.5136	552.3053	594.7752	721.7074	762.381	789.6422	833.9796	851.7342	858.1969	900.6372	920.9825	928.4285	945.8685	970.3974	974.3008	989.8294	1022.4222	1035.7751	1073.454	1078.0509	1111.0585	1134.9942	1161.1465	1190.4667	1204.7232	1218.5862	1236.1969	1253.0759	1263.0312	1278.5498	1314.3245	1324.4151	1440.4236	1497.4603	1522.3946	3062.2309	3106.0033	3117.7882	3121.0718	3132.226	3141.568	3149.0351	3190.7502	3482.1791
C1NC11C2CC3C2OC13	C1N[C@]21[C@@H]1C[C@H]3[C@@H]1O[C@@H]23	
InChI=1S/C7H9NO/c1-3-5-4(1)7(2-8-7)6(3)9-5/h3-6,8H,1-2H2	InChI=1S/C7H9NO/c1-3-5-4(1)7(2-8-7)6(3)9-5/h3-6,8H,1-2H2/t3-,4+,5-,6+,7+/m0/s1
