14
gdb 128076	4.5943	1.0638	0.86853	2.764	65.11	-0.261	-0.0556	0.2054	1255.3874	0.101608	-470.029023	-470.020823	-470.019879	-470.063289	27.865	
C	-0.0797084479	 1.4190865786	 0.0394567934	-0.33766
N	-0.0392271693	-0.0202738413	-0.1246174704	-0.323265
C	 0.7774194689	-0.6264590549	-1.0243714488	 0.340715
O	 1.5455989368	-0.0596415113	-1.774376282	-0.355463
C	 0.6536110121	-2.1283167064	-1.0230312565	 0.291609
N	-0.1660071291	-2.7659493197	-0.226156313	-0.179149
O	 0.0326675185	-4.104551436	-0.5458085829	-0.153134
C	 0.9613592473	-4.1141544465	-1.5107641117	 0.112533
N	 1.3880284324	-2.9438885969	-1.8545780994	-0.281429
H	 0.6326883911	 1.850842209	-0.6640901419	 0.174471
H	-1.078922084	 1.813515963	-0.1746718776	 0.132671
H	 0.2013773313	 1.7090381034	 1.0576708461	 0.13267
H	-0.6328850057	-0.6057807643	 0.4425741835	 0.268784
H	 1.2548361773	-5.0789463766	-1.8971822188	 0.176648
43.3368	76.5681	112.0944	161.4172	239.0936	315.9624	392.4146	490.8695	520.4114	635.8418	670.5847	816.7884	822.8514	905.844	940.6206	986.2005	996.8174	1043.5938	1127.2866	1153.3741	1177.6721	1226.4214	1305.6721	1384.68	1442.7344	1484.2198	1498.7244	1500.355	1576.8462	1581.5538	1798.3077	3031.5556	3084.916	3156.3558	3271.9255	3626.8355
CNC(=O)C1=NOC=N1	CNC(=O)c1nocn1	
InChI=1S/C4H5N3O2/c1-5-4(8)3-6-2-9-7-3/h2H,1H3,(H,5,8)	InChI=1S/C4H5N3O2/c1-5-4(8)3-6-2-9-7-3/h2H,1H3,(H,5,8)
