19
gdb 73485	2.49842	2.26862	1.59606	1.8435	73.79	-0.2244	0.0929	0.3173	903.2783	0.161409	-423.011781	-423.004945	-423.004001	-423.042498	28.767	
C	 0.0759511877	 1.5050311139	-0.0743909958	-0.482817
C	-0.0164335415	-0.0003297623	-0.0164895026	 0.464319
O	 0.6366756015	-0.5542650123	-1.1456549357	-0.320417
C	 0.0795162082	-1.8590260095	-1.3611235974	-0.080621
C	-0.7006796396	-2.1027399095	-0.0764042472	 0.053648
O	 0.3049601668	-2.1098873914	 0.9695085054	-0.284901
C	 0.2809550003	-0.7273070896	 1.3569258758	 0.027564
C	-1.2082430376	-0.5263240334	 1.7209097046	-0.262405
C	-1.3813876766	-0.7351988087	 0.1980821361	-0.1406
H	 1.1267339616	 1.8067815971	-0.1254807668	 0.13352
H	-0.426035085	 1.8831382567	-0.9699255456	 0.126346
H	-0.3703376239	 1.9777919248	 0.8034996887	 0.120114
H	-0.5538795592	-1.8626115841	-2.2614298663	 0.086434
H	 0.8872605499	-2.5864700608	-1.4840463706	 0.114614
H	-1.309242759	-3.0071177265	-0.0356976267	 0.080471
H	 1.1198777662	-0.5025096901	 2.0143136953	 0.078773
H	-1.6333371658	-1.2702925201	 2.39628504	 0.10659
H	-1.468293704	 0.4828405322	 2.0421499596	 0.10573
H	-2.28608023	-0.4949564764	-0.3593405109	 0.073636
195.2743	233.2728	280.5826	332.7325	403.417	437.9394	500.1612	581.246	650.3376	708.0607	748.4697	828.1424	860.5117	871.9132	897.1394	911.3287	938.55	957.1219	971.6639	997.4149	1030.8457	1059.9933	1071.0764	1092.9594	1118.0384	1167.7455	1172.0575	1187.0371	1207.1329	1233.6416	1250.7644	1274.108	1292.1522	1308.2579	1349.6408	1381.1392	1416.5063	1480.2972	1489.0745	1501.1927	1509.5381	2988.185	3045.2391	3082.7054	3083.289	3108.4028	3110.1218	3125.8372	3128.0351	3134.1027	3146.1488
CC12OCC3OC1CC23	C[C@@]12OC[C@H]3O[C@@H]1C[C@@H]23	
InChI=1S/C7H10O2/c1-7-4-2-6(7)9-5(4)3-8-7/h4-6H,2-3H2,1H3	InChI=1S/C7H10O2/c1-7-4-2-6(7)9-5(4)3-8-7/h4-6H,2-3H2,1H3/t4-,5-,6-,7+/m1/s1
