13
gdb 25392	3.11886	1.38649	0.95981	5.4881	71.33	-0.2558	-0.1143	0.1415	1110.3101	0.090875	-452.81868	-452.811573	-452.810629	-452.850751	25.976	
O	 0.0400219372	-0.0472949823	-0.0020418177	-0.258644
C	-0.0026856066	 1.1588482558	 0.0089195507	 0.10766
C	 1.2228863524	 1.9982221313	 0.001882452	 0.309746
C	 1.2055501547	 3.3615150403	 0.0137567237	-0.232264
C	 2.4811013844	 4.0035016643	 0.0044706663	 0.043374
N	 3.6272696158	 3.3893980411	-0.014076247	-0.303468
C	 3.6677747049	 1.9900574785	-0.0265509555	 0.448493
O	 4.6828530378	 1.337829863	-0.0438535374	-0.364101
N	 2.4081724262	 1.3484988636	-0.0174240598	-0.405008
H	-0.9544012324	 1.7239125873	 0.0247981387	 0.112149
H	 0.2782804123	 3.9180808262	 0.0292799863	 0.125338
H	 2.5181939297	 5.0933946209	 0.0133908137	 0.133673
H	 2.3987848336	 0.3345461002	-0.025987254	 0.283052
108.276	131.5908	182.703	249.6599	424.9428	447.7629	513.134	583.6554	609.489	655.7636	749.3177	787.2381	796.6572	817.5444	922.3112	1008.9369	1021.3258	1035.5374	1072.2615	1141.5704	1202.0014	1345.2569	1400.0517	1420.5446	1497.6585	1585.5176	1678.1867	1797.1283	1825.2848	2955.9405	3126.6376	3227.5416	3568.2773
O=CC1=CC=NC(=O)N1	O=Cc1ccnc(=O)[nH]1	
InChI=1S/C5H4N2O2/c8-3-4-1-2-6-5(9)7-4/h1-3H,(H,6,7,9)	InChI=1S/C5H4N2O2/c8-3-4-1-2-6-5(9)7-4/h1-3H,(H,6,7,9)
