18
gdb 22592	2.82176	1.2448	1.04736	1.2933	76.99	-0.2348	0.0291	0.2639	1190.1114	0.145971	-438.985176	-438.976251	-438.975307	-439.018367	33.982	
C	-0.0250003688	 1.4687057448	 0.0220423371	-0.520338
C	-0.0117249142	-0.0313521811	-0.0166287252	 0.205065
C	 0.5793984032	-0.9863988409	-1.1297711213	-0.268261
C	-0.0047300796	-1.9720859333	-0.0577328265	-0.206196
C	 0.633459092	-1.0121560961	 1.020353407	 0.116069
O	 2.0302762106	-0.9152554316	 1.1114567212	-0.439479
C	-1.1713644684	-1.0095018155	 0.0000404829	 0.459801
N	-2.4279756463	-0.9246303653	 0.0263719461	-0.326814
O	-3.0265143507	-2.2130531791	 0.0087007399	-0.404207
H	 0.9960704365	 1.8610435469	 0.0501411216	 0.133083
H	-0.5270200789	 1.8777091062	-0.8601445262	 0.130245
H	-0.5558462559	 1.8304595247	 0.9084740176	 0.129809
H	 0.0802173417	-0.9674459416	-2.099583292	 0.106409
H	 1.6651240614	-0.9803553341	-1.2125796148	 0.119518
H	-0.0213832666	-3.0585203116	-0.0736349187	 0.092657
H	 0.1614704552	-1.0335407946	 2.0101643395	 0.080585
H	 2.3509709868	-1.6549259128	 1.6366998858	 0.289647
H	-3.9634792879	-1.9915701249	 0.023026156	 0.302407
117.9633	152.2287	179.5842	205.0398	262.7881	271.1178	319.5737	353.5996	378.2681	407.3832	520.3475	610.2796	660.3877	719.2654	731.2684	783.3627	854.0492	882.5021	923.9925	939.954	1016.1187	1040.9345	1055.6649	1082.6642	1117.771	1149.886	1174.5263	1184.9345	1203.0681	1222.0626	1289.536	1350.6176	1404.7604	1415.92	1438.8501	1488.8127	1489.0959	1506.3688	1827.1885	3031.9092	3038.5127	3084.405	3107.2796	3112.263	3159.2933	3164.8019	3821.1346	3822.7084
CC12CC(C1O)C2=NO	C[C@@]12C[C@@H]([C@H]1O)C2=NO	
InChI=1S/C6H9NO2/c1-6-2-3(5(6)8)4(6)7-9/h3,5,8-9H,2H2,1H3	InChI=1S/C6H9NO2/c1-6-2-3(5(6)8)4(6)7-9/h3,5,8-9H,2H2,1H3/t3-,5-,6+/m1/s1
