15
gdb 57155	3.20948	0.75156	0.62759	3.9885	74.02	-0.2739	-0.0705	0.2034	1678.6688	0.109102	-457.697537	-457.687885	-457.686941	-457.734116	32.104	
O	 0.1473674025	 1.6199658257	-0.0232484426	-0.404802
C	 0.1156296406	 0.2005278303	 0.0472037971	-0.097746
C	 0.6477098625	-0.4293620742	-1.1615883827	 0.095659
C	 1.1279761085	-0.9328803509	-2.1493932927	 0.033967
C	 1.6961027304	-1.5004410259	-3.3474225683	 0.021464
O	 1.6744661085	-2.6769800987	-3.6224627506	-0.220298
C	 0.8460855271	-0.3054631331	 1.2885785982	 0.077818
C	 0.1418864664	-0.4121932485	 2.5681887314	-0.174872
O	 0.4405258891	-1.5730388908	 1.7848861274	-0.220135
H	 1.019479637	 1.8848736557	-0.3360117262	 0.291725
H	-0.940786749	-0.0730100286	 0.1526286259	 0.140569
H	 2.1694288026	-0.7551290225	-4.0185047103	 0.102734
H	 1.923557644	-0.1327250684	 1.2876391806	 0.10272
H	 0.699059781	-0.3193214207	 3.4983291108	 0.125198
H	-0.9116877112	-0.1428757994	 2.6238734518	 0.126
37.4165	49.2944	90.0327	116.8435	198.0565	212.9741	255.4625	296.7212	333.9736	441.8861	492.7851	584.6954	648.4499	818.7133	863.7119	883.0444	962.0819	1019.6978	1035.1303	1091.6246	1112.661	1151.5706	1159.2738	1170.3448	1246.4179	1282.7646	1295.893	1400.3839	1422.0238	1437.7328	1527.9567	1771.7143	2322.1925	2920.7686	3052.3782	3090.3579	3101.9604	3180.6616	3810.7809
OC(C#CC=O)C1CO1	O[C@@H](C#CC=O)[C@H]1CO1	
InChI=1S/C6H6O3/c7-3-1-2-5(8)6-4-9-6/h3,5-6,8H,4H2	InChI=1S/C6H6O3/c7-3-1-2-5(8)6-4-9-6/h3,5-6,8H,4H2/t5-,6+/m0/s1
