21
gdb 72515	2.16287	1.77291	1.6005	2.7451	80.64	-0.2267	-0.0056	0.2212	1016.229	0.184784	-387.137191	-387.129024	-387.12808	-387.169592	32.241	
C	-0.0096521042	 1.518172163	 0.0181993539	-0.478522
C	 0.0316653133	 0.0036363218	 0.0025122155	 0.213231
C	 0.6181367574	-0.6520844266	-1.2757666145	-0.248967
C	 0.0395958508	-2.1123711919	-1.2731130854	-0.228162
C	-0.8170867467	-2.1675033912	 0.0127916091	-0.112887
C	 0.130233664	-2.1359273142	 1.2343073427	-0.228159
C	 0.7081631906	-0.675443602	 1.2228026146	-0.248961
C	-1.3279010169	-0.7210877325	 0.044780583	 0.396801
O	-2.4397186116	-0.2719420858	 0.0893327075	-0.335155
H	 0.9984683378	 1.9453832082	-0.0138150489	 0.110709
H	-0.5675736765	 1.9022999123	-0.8415616573	 0.122953
H	-0.5045363295	 1.885720652	 0.9226429571	 0.12297
H	 0.2953088072	-0.1054754199	-2.1671131408	 0.105475
H	 1.7121072915	-0.6354591954	-1.2619436125	 0.100725
H	-0.5761830028	-2.2899816003	-2.1590345448	 0.109514
H	 0.8253798214	-2.8729211922	-1.2621965315	 0.102245
H	-1.5833183156	-2.9405416762	 0.033218757	 0.078217
H	-0.4199896097	-2.3308410046	 2.1588823445	 0.109517
H	 0.9128274218	-2.895419026	 1.1522338162	 0.102248
H	 1.7983239751	-0.6575716214	 1.1307941561	 0.100727
H	 0.4503946725	-0.1459340072	 2.1451273985	 0.10548
115.1499	136.638	178.5884	229.1749	288.0537	323.9574	375.5415	489.161	533.1797	579.324	657.3379	752.8821	765.8265	798.2259	842.5481	865.8674	872.9327	898.473	949.2965	957.758	964.5378	1023.6158	1042.8432	1067.1239	1101.577	1140.9586	1189.2994	1199.8032	1205.1549	1217.8086	1252.2052	1283.7154	1285.6618	1294.9151	1325.261	1333.8816	1371.8222	1414.7316	1480.1134	1490.8359	1492.6816	1495.5718	1498.7229	1515.8377	1872.8716	3032.5662	3042.8599	3043.9412	3055.8561	3057.6977	3079.4103	3081.6884	3099.0741	3101.1641	3105.0427	3106.8355	3133.1949
CC12CCC(CC1)C2=O	C[C@@]12CC[C@@H](CC1)C2=O	
InChI=1S/C8H12O/c1-8-4-2-6(3-5-8)7(8)9/h6H,2-5H2,1H3	InChI=1S/C8H12O/c1-8-4-2-6(3-5-8)7(8)9/h6H,2-5H2,1H3/t6-,8+
