17
gdb 36124	3.99515	1.13492	1.00218	4.4761	76.52	-0.2445	-0.0071	0.2374	1176.5723	0.13764	-380.871823	-380.864093	-380.863149	-380.9045	29.543	
N	-0.059325415	-1.0755972757	-0.5559286673	-0.312915
C	-0.0510380399	 0.0394739824	-0.2530814907	 0.267992
C	-0.0121552707	 1.4478566395	 0.1479978545	-0.413507
C	 1.4045549047	 1.9952445662	 0.1809209219	 0.323937
C	 2.4308978624	 1.3640705788	 1.127976628	-0.333769
C	 3.3547288294	 2.5139795148	 1.4689275639	-0.090485
C	 2.9379169491	 3.6647599318	 0.9330818665	-0.07543
C	 1.7231717688	 3.4560999276	 0.0895656165	-0.124639
N	 1.8834857489	 2.5588744011	-1.0815321982	-0.353572
H	-0.6079263695	 2.0315324111	-0.559845128	 0.162294
H	-0.4813186167	 1.5388436914	 1.1348507833	 0.149729
H	 1.9428675816	 0.9636299657	 2.0269160533	 0.121088
H	 2.9542279995	 0.5181315364	 0.6652719706	 0.13434
H	 4.2520327621	 2.3817296828	 2.0620804761	 0.108121
H	 3.4170823812	 4.6299934422	 1.0442693735	 0.108295
H	 0.975850755	 4.2346877941	-0.027731019	 0.097102
H	 2.8700629992	 2.3519469299	-1.226567465	 0.231418
59.1332	108.8903	223.6187	296.7114	373.3863	388.5906	393.7604	451.6401	518.9109	691.416	729.143	747.8094	791.4896	860.7294	887.5388	931.9996	933.248	953.1766	959.5185	993.0115	1012.0338	1061.5786	1111.189	1135.7805	1159.0911	1168.8571	1229.5595	1274.4424	1298.1254	1324.525	1328.2441	1376.0296	1420.4104	1451.4172	1472.226	1661.8806	2361.6649	3021.1376	3044.9248	3055.757	3099.0958	3159.5346	3194.9128	3219.1194	3481.8402
N#CCC12CC=CC1N2	N#CC[C@]12CC=C[C@H]1N2	
InChI=1S/C7H8N2/c8-5-4-7-3-1-2-6(7)9-7/h1-2,6,9H,3-4H2	InChI=1S/C7H8N2/c8-5-4-7-3-1-2-6(7)9-7/h1-2,6,9H,3-4H2/t6-,7-/m1/s1
