17
gdb 124878	3.69494	1.24805	1.04242	2.8447	74.18	-0.2381	0.0022	0.2404	1147.9279	0.137827	-414.165268	-414.157371	-414.156427	-414.198135	29.76	
C	-0.2734701925	 1.3130573374	-0.804408587	-0.471038
C	-0.0356626256	 0.0178730422	-0.0553275799	 0.202199
C	 1.0625175586	-0.8854702152	-0.5135236002	-0.260798
N	 1.1890440671	-0.1448729979	 0.7530471596	-0.350474
C	-1.2380585508	-0.5777708641	 0.57868168	 0.310672
C	-1.3404453335	-1.2644431178	 1.7668048908	-0.176363
N	-2.6536069179	-1.5812351034	 1.842880369	-0.15612
N	-3.3394672531	-1.1215999451	 0.7806858631	-0.112927
N	-2.4801653495	-0.5136460457	 0.0137589671	-0.276023
H	 0.6437502612	 1.6495485432	-1.2981850858	 0.10494
H	-1.0506914363	 1.1794330672	-1.5612203461	 0.154031
H	-0.6104178869	 2.100791001	-0.122039818	 0.126418
H	 0.9565376709	-1.9609029735	-0.4049902318	 0.118373
H	 1.6546301918	-0.5684905003	-1.3683773693	 0.113787
H	 1.7919886123	 0.66414901	 0.6238362655	 0.230974
H	-0.6153449843	-1.524007741	 2.5175076543	 0.16055
H	-3.1446915614	-2.0807626271	 2.566921259	 0.281798
53.2942	153.5339	186.136	219.6121	312.9323	347.4446	422.7746	490.2922	554.2448	582.1344	702.3292	745.4007	814.7899	828.7672	849.7738	932.7979	971.659	984.9922	992.1782	1029.974	1048.8162	1054.25	1116.8891	1124.3197	1144.1269	1229.1332	1264.0774	1288.2314	1301.8105	1355.2113	1384.497	1413.7517	1479.6108	1487.8021	1501.8282	1512.0878	1599.7122	3034.8216	3100.8156	3106.2162	3123.227	3195.4528	3302.3781	3496.1197	3658.9072
CC1(CN1)C1=CNN=N1	C[C@]1(CN1)c1c[nH]nn1	
InChI=1S/C5H8N4/c1-5(3-6-5)4-2-7-9-8-4/h2,6H,3H2,1H3,(H,7,8,9)	InChI=1S/C5H8N4/c1-5(3-6-5)4-2-7-9-8-4/h2,6H,3H2,1H3,(H,7,8,9)/t5-/m0/s1
