14
gdb 61132	6.04608	0.60032	0.5574	1.6592	81.18	-0.2818	-0.0589	0.2229	1815.1394	0.100666	-395.71934	-395.710078	-395.709134	-395.754332	31.941	
N	-0.099966497	 1.5018106741	 0.0611771487	-0.497349
C	 0.0009910492	 0.0490892998	 0.0195904885	-0.205295
C	 0.695807553	-0.5484719858	-1.2537899351	-0.342502
C	 0.0203090669	-0.0969223403	-2.4653844316	 0.254458
N	-0.5432428485	 0.2936650356	-3.3956352845	-0.29435
C	 0.6992336867	-0.4422537259	 1.2062935872	 0.113004
C	 1.3046344839	-0.8623548008	 2.1625336815	 0.09971
C	 1.9845954383	-1.3337544921	 3.2495470399	 0.208916
N	 2.5659175868	-1.7367185819	 4.1705631285	-0.326177
H	 0.8198715472	 1.9299637306	 0.0160693012	 0.243035
H	-0.6359331298	 1.8326795533	-0.7358347829	 0.258734
H	-1.0227222069	-0.3464647068	 0.0438398032	 0.153432
H	 1.7430247337	-0.229148099	-1.28163343	 0.164252
H	 0.6876233365	-1.6427715107	-1.2137537045	 0.170132
58.7646	65.9652	123.4282	156.2604	225.1127	256.0385	320.2785	353.094	397.0227	459.4463	516.2211	541.4443	580.7241	591.3956	747.7039	829.9153	865.5377	955.5679	998.9465	1077.8921	1157.2469	1193.2151	1249.3082	1288.6421	1341.9715	1415.9577	1460.7929	1656.8275	2269.8884	2361.9027	2406.9002	3032.1572	3053.6421	3099.0804	3495.4733	3583.3709
NC(CC#N)C#CC#N	N[C@@H](CC#N)C#CC#N	
InChI=1S/C6H5N3/c7-4-1-2-6(9)3-5-8/h6H,3,9H2	InChI=1S/C6H5N3/c7-4-1-2-6(9)3-5-8/h6H,3,9H2/t6-/m1/s1
