17
gdb 95108	2.5148	1.58657	1.16328	3.4768	72.7	-0.2506	0.0003	0.2508	1070.1011	0.137631	-418.009633	-418.001625	-418.000681	-418.042119	30.629	
N	 0.1347507329	 1.4495472059	-0.0066335959	-0.513903
C	 0.0333151225	 0.0005041112	-0.0130703358	-0.054724
C	 0.7006472518	-0.6299564176	 1.2356626563	-0.222036
C	-0.0166930796	-1.972412089	 1.4913467909	-0.25561
C	-1.4116879685	-1.7533878164	 0.9412833405	-0.00721
O	-1.9976331611	-0.5007180021	 1.3212173371	-0.28911
C	-1.3839705883	-0.5988565819	 0.0247913102	 0.282349
C	-2.2539734921	-0.4484747099	-1.1141304606	 0.212448
N	-2.901001494	-0.2936559714	-2.0598442549	-0.333053
H	-0.2513793626	 1.8416718162	-0.8604783526	 0.241281
H	-0.4091934622	 1.8267338536	 0.7652419845	 0.238646
H	 0.5158947621	-0.3666372798	-0.9274688142	 0.100174
H	 1.7770607505	-0.741293884	 1.0972668724	 0.117779
H	 0.548285432	 0.0426691873	 2.0833660588	 0.122907
H	 0.4497156754	-2.7947841787	 0.9361556702	 0.118058
H	-0.0270238711	-2.2551301982	 2.5480993359	 0.122932
H	-2.1155356078	-2.5719852252	 0.8179073771	 0.119072
105.7217	139.6556	174.7931	242.8837	319.4905	354.8274	389.8747	485.875	508.1696	568.3325	605.3048	657.4192	686.2767	825.01	857.6145	879.4316	929.4252	934.2768	964.508	1002.7064	1030.531	1077.1258	1137.6228	1162.7911	1177.5802	1228.1851	1255.2261	1292.6357	1307.8936	1331.9951	1347.6565	1414.1578	1432.2442	1479.6673	1492.5858	1661.1781	2354.5161	3037.3107	3045.4369	3077.4812	3093.4861	3129.5645	3160.6041	3485.7579	3568.3613
NC1CCC2OC12C#N	N[C@H]1CC[C@H]2O[C@@]12C#N	
InChI=1S/C6H8N2O/c7-3-6-4(8)1-2-5(6)9-6/h4-5H,1-2,8H2	InChI=1S/C6H8N2O/c7-3-6-4(8)1-2-5(6)9-6/h4-5H,1-2,8H2/t4-,5+,6-/m0/s1
