19
gdb 32665	2.01643	1.69193	0.99175	3.5116	78.19	-0.1965	0.0461	0.2426	1224.9917	0.160076	-419.235453	-419.226321	-419.225377	-419.269909	32.815	
C	 0.1692041534	 2.298531781	-0.2639803206	-0.376894
C	-0.3873393175	 0.8755190928	-0.3443306366	-0.158343
N	 0.3463068476	 0.0292992518	-1.2732566741	-0.082525
C	-0.0150786324	-0.3409211277	-2.5464528044	-0.007453
N	 0.8916636175	-1.0833235829	-3.127102267	-0.271548
C	 1.9130247761	-1.2151607697	-2.2050609325	-0.227194
C	 1.5841533714	-0.531246123	-1.0617442519	 0.377321
O	 2.178309172	-0.3186676705	 0.1319798769	-0.269678
C	 3.4364354365	-0.9589755295	 0.2819584709	-0.249254
H	 1.2052357004	 2.2839818777	 0.0831002706	 0.141186
H	 0.1374298336	 2.7852701206	-1.2430547263	 0.128992
H	-0.4217885805	 2.8944272655	 0.4383025325	 0.1193
H	-0.3623292462	 0.403575964	 0.6427129921	 0.130347
H	-1.4296590197	 0.8851488054	-0.675910767	 0.121035
H	-0.959321314	-0.0339983215	-2.9722239875	 0.12132
H	 2.8012851382	-1.7872754195	-2.4173154154	 0.104006
H	 4.1522996382	-0.5951600074	-0.4656190979	 0.131101
H	 3.7932658049	-0.7133871608	 1.2828249824	 0.136836
H	 3.3359223304	-2.0466624965	 0.1806363359	 0.131444
63.3582	86.321	131.4986	179.9379	199.194	243.358	306.4046	314.5823	409.5329	519.4503	627.5414	672.2846	680.5501	734.3807	772.4547	777.9316	794.8318	929.0025	970.8546	1077.931	1097.1004	1113.3015	1134.0933	1184.3764	1214.2261	1235.0183	1259.8227	1292.7719	1294.8087	1390.1006	1400.1376	1409.9701	1454.0523	1474.542	1483.0211	1488.8011	1491.498	1507.1313	1509.3765	1543.8674	1614.8228	3012.3848	3045.3572	3055.5219	3073.149	3096.4125	3118.5517	3134.1773	3143.5282	3241.248	3260.7601
CCN1C=NC=C1OC	CCn1cncc1OC	
InChI=1S/C6H10N2O/c1-3-8-5-7-4-6(8)9-2/h4-5H,3H2,1-2H3	InChI=1S/C6H10N2O/c1-3-8-5-7-4-6(8)9-2/h4-5H,3H2,1-2H3
