18
gdb 111959	2.81876	1.27073	1.0235	4.1941	74.66	-0.2177	-0.0213	0.1964	1211.7131	0.147051	-439.121212	-439.112024	-439.111079	-439.156054	33.147	
C	-0.1451322354	 1.5703421856	-0.0762703351	-0.379026
C	 0.0815295347	 0.0583489746	 0.0108113837	-0.164524
N	 0.6862664323	-0.5057134092	-1.1838735301	-0.081422
C	 0.0456007742	-0.691586705	-2.4221023565	-0.015064
C	 0.8882087511	-1.0879137392	-3.3812557254	-0.217672
C	 2.2645988139	-1.2298511912	-2.7780315841	-0.006581
O	 3.3282636199	-0.5794476149	-3.4413467262	-0.41132
C	 2.0464089753	-0.7342616111	-1.3168632344	 0.349351
O	 2.8797968908	-0.5582019246	-0.458848342	-0.36875
H	 0.8048086057	 2.092949798	-0.2191052796	 0.138497
H	-0.8088477005	 1.8289909359	-0.9077308214	 0.119029
H	-0.6031359054	 1.9374684246	 0.8473347162	 0.124297
H	 0.7650014395	-0.1739650257	 0.8314120767	 0.146252
H	-0.8636712826	-0.4620031404	 0.2033663856	 0.112176
H	-1.0219941932	-0.5243770038	-2.4800083052	 0.130084
H	 0.6355797143	-1.3272052127	-4.4026623666	 0.113204
H	 2.5647602147	-2.284503859	-2.7236528688	 0.128013
H	 3.1102764707	 0.3573262483	-3.5004966067	 0.283454
39.5113	75.7273	109.3369	209.1922	235.0656	293.9557	311.4857	315.0607	392.7195	504.5613	551.1834	611.7388	699.8158	711.7531	751.9644	796.7195	869.9249	916.893	917.5545	995.5657	1015.6779	1080.9829	1100.2701	1121.0772	1159.178	1232.8559	1252.6198	1265.263	1295.4815	1377.775	1390.1384	1406.9444	1413.982	1424.6169	1480.2874	1493.1846	1501.8856	1665.628	1824.064	3033.9545	3039.3504	3041.3662	3099.2282	3115.7634	3125.2623	3219.7505	3257.8682	3803.7836
CCN1C=CC(O)C1=O	CCN1C=C[C@@H](O)C1=O	
InChI=1S/C6H9NO2/c1-2-7-4-3-5(8)6(7)9/h3-5,8H,2H2,1H3	InChI=1S/C6H9NO2/c1-2-7-4-3-5(8)6(7)9/h3-5,8H,2H2,1H3/t5-/m1/s1
