18
gdb 91063	3.99274	1.25119	1.16292	2.12	77.97	-0.2323	0.0025	0.2348	1091.6375	0.14865	-401.872391	-401.864948	-401.864004	-401.904162	29.841	
O	-0.1171508472	 1.4610485141	-0.0271408839	-0.426417
C	 0.0439695172	 0.0492658901	-0.0748074078	 0.102517
C	-1.366621916	-0.6145361776	 0.0482984995	-0.272971
C	-1.1772858912	-1.8961821761	-0.7733793731	 0.013161
N	-2.0634308495	-2.5298929982	-1.8648092601	-0.17081
C	-2.2251662738	-1.5600559832	-2.9590564896	-0.226297
C	-0.9133905216	-2.2507460882	-2.8463291981	-0.148463
C	-0.1535260723	-1.5094609676	-1.7853093781	 0.272796
C	 0.5575818914	-0.4437123776	-1.4402628261	-0.275384
H	 0.7456302888	 1.8589751582	 0.1240959046	 0.283903
H	 0.6949313993	-0.2769877477	 0.75269372	 0.073098
H	-1.6755217474	-0.7689450027	 1.0847266737	 0.10107
H	-2.0773006556	 0.0692283406	-0.4279770628	 0.123885
H	-0.8808512511	-2.7416293819	-0.1433807525	 0.096236
H	-2.9174365868	-1.9104168338	-3.7194992802	 0.123725
H	-2.2794518201	-0.4948825694	-2.7485978223	 0.124198
H	-0.5661003974	-2.9981908392	-3.5494484369	 0.107651
H	 1.3039505132	 0.1012090103	-2.0067693864	 0.098102
93.7413	203.0484	242.7686	261.2011	332.5807	441.0542	479.7664	511.6933	595.828	654.8291	715.4221	722.5829	800.6637	822.767	871.0862	878.2231	922.62	978.7567	1009.5357	1012.6893	1034.8728	1051.8059	1064.0585	1107.73	1127.4423	1135.1401	1160.3627	1206.0648	1226.0894	1234.463	1265.8972	1281.1028	1313.0775	1322.8094	1352.1069	1417.5915	1477.1968	1495.9433	1736.9509	2959.8535	3045.6948	3057.7176	3107.5245	3115.1375	3183.8087	3197.2811	3197.5652	3823.8478
OC1CC2N3CC3C2=C1	O[C@H]1C[C@H]2N3C[C@H]3[C]2[CH]1	
InChI=1S/C7H9NO/c9-4-1-5-6(2-4)8-3-7(5)8/h1,4,6-7,9H,2-3H2	InChI=1S/C7H9NO/c9-4-1-5-6(2-4)8-3-7(5)8/h1,4,6-7,9H,2-3H2/t4-,6-,7+,8?/m1/s1
