17
gdb 78144	2.10604	1.72323	1.23365	2.6072	73.13	-0.2417	-0.0319	0.2097	1056.2864	0.135382	-421.866415	-421.858333	-421.857388	-421.899289	30.599	
C	-0.1730922179	 1.5160520225	-0.0203697034	-0.426409
C	 0.0681288005	 0.0227071244	 0.0524064894	-0.012596
C	 1.346860258	-0.6964328775	-0.3230465031	-0.181302
C	 0.8462298692	-0.7066050034	 1.1275540701	-0.181302
C	 1.8272923918	 0.0823417923	 1.9487332263	 0.411172
O	 1.8517466764	 0.1141357107	 3.1530476761	-0.317106
C	 2.8474522696	 0.7425827804	 1.016652638	-0.463825
C	 2.6221601621	 0.0984766613	-0.3544011416	 0.411175
O	 3.3840137705	 0.1452816618	-1.2868019438	-0.317108
H	 0.6873537529	 2.1153733601	 0.2808305254	 0.128132
H	-0.4331292166	 1.8044168109	-1.043864206	 0.1365
H	-1.0103132372	 1.7926755972	 0.6283632821	 0.136499
H	-0.8061044704	-0.5477302416	-0.2533054323	 0.115532
H	 1.2880748509	-1.5586781952	-0.9761913056	 0.118423
H	 0.4008650287	-1.5767060389	 1.5945603115	 0.118423
H	 2.7233869708	 1.8299116445	 0.981455796	 0.161264
H	 3.867354601	 0.5583130506	 1.3673542709	 0.162529
86.3769	106.4527	154.5637	232.3825	337.0496	379.5404	408.5211	482.3124	554.6997	567.0378	578.1986	661.9302	719.9396	776.717	827.467	883.9076	930.5347	940.0035	949.6128	1014.5981	1067.6217	1087.9533	1126.2196	1134.3009	1166.0543	1215.6463	1230.3412	1242.2296	1324.5946	1334.4199	1404.976	1422.622	1429.7344	1489.0258	1504.4997	1819.9288	1853.862	3046.5557	3063.6738	3104.8968	3105.5154	3127.4641	3145.534	3189.2848	3197.1148
CC1C2C1C(=O)CC2=O	C[C@H]1[C@@H]2[C@H]1C(=O)CC2=O	
InChI=1S/C7H8O2/c1-3-6-4(8)2-5(9)7(3)6/h3,6-7H,2H2,1H3	InChI=1S/C7H8O2/c1-3-6-4(8)2-5(9)7(3)6/h3,6-7H,2H2,1H3/t3-,6-,7+
