15
gdb 27585	3.51393	1.20954	0.90051	3.1723	87.52	-0.217	-0.0363	0.1807	1221.4211	0.114077	-379.699011	-379.691223	-379.690279	-379.73103	30.348	
N	-0.0107508776	 1.412447483	 0.1422145884	-0.596951
C	-0.006194683	 0.0252115425	 0.0444212135	 0.299512
C	-1.1882225442	-0.7166849649	 0.0395262409	-0.257652
C	-1.1250493427	-2.113148845	 0.0028195875	 0.122242
C	 0.1424564901	-2.7180319819	-0.0290753181	-0.089222
N	 1.2754648517	-2.0202236969	-0.028362078	-0.257852
C	 1.2011615443	-0.6933161924	 0.0066436228	-0.046281
C	-2.3079498343	-2.9047197353	-0.0042715445	 0.224478
C	-3.3045928121	-3.5806354758	-0.0111827355	-0.408412
H	 0.8253052446	 1.868450634	-0.1928776905	 0.252859
H	-0.8462631829	 1.8675441384	-0.1948948582	 0.251812
H	-2.1526570592	-0.2200516363	 0.0670156596	 0.101333
H	 0.2250995505	-3.7999244921	-0.0586020443	 0.112345
H	 2.1464345177	-0.1518297185	 0.0072512196	 0.096718
H	-4.1820787329	-4.1781614489	-0.0162391331	 0.195071
138.9352	141.8818	221.9061	303.7143	361.5382	370.7358	477.72	486.7017	542.8901	553.4237	575.0473	592.1963	644.3852	646.9254	721.1784	732.1237	901.9506	914.8072	943.1714	979.5993	1028.3547	1104.6923	1184.5487	1208.3196	1299.6543	1329.6205	1359.2468	1467.5096	1497.0605	1593.6688	1632.8731	1659.4137	2227.5916	3131.6826	3178.672	3182.9438	3504.564	3566.8913	3665.7335
NC1=CC(=CN=C1)C#C	Nc1cc(cnc1)C#C	
InChI=1S/C7H6N2/c1-2-6-3-7(8)5-9-4-6/h1,3-5H,8H2	InChI=1S/C7H6N2/c1-2-6-3-7(8)5-9-4-6/h1,3-5H,8H2
