21
gdb 95229	2.8388	1.44891	1.13284	0.9678	85.49	-0.227	0.0191	0.2461	1159.665	0.18413	-387.083107	-387.074897	-387.073953	-387.1158	32.695	
C	 0.344894902	 1.5239473963	-0.108784069	-0.395659
C	-0.0824273457	 0.0565662304	-0.0303774407	 0.072095
O	 0.4559476016	-0.5733361039	-1.1848305991	-0.250281
C	-0.0512129805	-1.8561972889	-1.4849481644	-0.111459
C	 0.7241056947	-2.9789648759	-0.8255997518	-0.032429
C	 2.1790512547	-2.7967398996	-0.5076367203	-0.286637
C	 1.154636239	-2.8989796065	 0.6210080565	-0.055662
C	 0.8475441815	-1.7694224235	 1.530657313	-0.079369
C	 0.3345169898	-0.5618570174	 1.2816783887	-0.062966
H	 1.4348269687	 1.6023251848	-0.0583656592	 0.127329
H	 0.0073540326	 1.9617877524	-1.0513755006	 0.120338
H	-0.0831576612	 2.0965404709	 0.7189227091	 0.113258
H	-1.1865941469	 0.0162027959	-0.096358454	 0.07433
H	-1.119283166	-1.9191408365	-1.2210889245	 0.09106
H	 0.0231433805	-1.9655449706	-2.5744528318	 0.105138
H	 0.4153002964	-3.9641918674	-1.1684426782	 0.080871
H	 2.8635681736	-3.6249255112	-0.6550062082	 0.106974
H	 2.5917946522	-1.8111297584	-0.6855868504	 0.130978
H	 1.1691424118	-3.8532248448	 1.1403793092	 0.083666
H	 1.0776142534	-1.9844538828	 2.5731673498	 0.085872
H	 0.1824673078	 0.0979271467	 2.1346223859	 0.082554
59.3411	202.8935	237.629	249.544	285.3617	311.3685	373.9355	426.9513	477.5427	580.8327	653.6429	716.7176	753.1748	760.0219	804.6416	825.7491	864.9696	907.4705	952.971	1000.5443	1012.9596	1026.1162	1043.8944	1072.4373	1089.8978	1115.9369	1134.9627	1146.0361	1165.6267	1173.8663	1226.5224	1274.3995	1308.5552	1328.4343	1367.2771	1387.6596	1400.4108	1407.0201	1426.8485	1439.0796	1484.7263	1490.3625	1493.7023	1500.0452	1728.441	2913.9988	2974.1968	3039.9787	3045.1139	3118.0163	3121.4709	3127.0808	3128.075	3136.5226	3141.1955	3150.7369	3237.0274
CC1OCC2CC2C=C1	C[C@H]1OC[C@H]2C[C@H]2C=C1	
InChI=1S/C8H12O/c1-6-2-3-7-4-8(7)5-9-6/h2-3,6-8H,4-5H2,1H3	InChI=1S/C8H12O/c1-6-2-3-7-4-8(7)5-9-6/h2-3,6-8H,4-5H2,1H3/t6-,7-,8-/m1/s1
