18
gdb 114194	3.58795	1.09515	0.92853	4.4296	74.24	-0.2435	-0.0382	0.2053	1267.0577	0.147281	-439.055649	-439.046969	-439.046025	-439.08948	32.126	
O	-0.5401891267	 1.6487176729	-0.1891757694	-0.421471
C	-0.1494656146	 0.3144291136	-0.4310068206	-0.073229
C	-1.2448726069	-0.6600353411	 0.0102565683	-0.123834
C	-0.93200758	-2.188847164	 0.1242725554	-0.376694
C	-1.379977329	-2.149124075	 1.600767425	 0.242138
C	-2.3211185922	-3.0744463183	 2.2973230414	-0.284703
N	-0.9371393007	-2.9334438944	 2.7521186753	-0.346767
C	-1.4727452782	-0.6429400352	 1.5321126947	 0.358451
O	-1.5736163496	 0.2504163231	 2.3298210806	-0.327244
H	-0.7876931875	 1.7061333041	 0.7435227621	 0.298953
H	 0.0380031561	 0.2253867701	-1.5064541991	 0.112257
H	 0.7916708881	 0.0623168873	 0.0867507358	 0.087943
H	-2.1673167521	-0.4472523532	-0.539107261	 0.113538
H	-1.5009856153	-2.8442335639	-0.5371751266	 0.116518
H	 0.1352379279	-2.4057075416	 0.0127346472	 0.117119
H	-3.0673485255	-2.6638583086	 2.9715141098	 0.141794
H	-2.6202674306	-3.970574776	 1.758895471	 0.124189
H	-0.3747317931	-3.7174895798	 2.4271865804	 0.24104
50.6979	122.615	174.8547	188.7848	236.8255	273.8573	333.6695	372.3778	489.3123	524.9195	586.8527	705.5613	727.0202	808.513	834.5871	887.4694	925.0933	959.8846	980.8937	992.8024	1020.3688	1068.2153	1079.5556	1123.9074	1129.0515	1144.1583	1181.0569	1221.796	1237.4699	1260.2169	1283.6012	1316.0046	1379.4391	1394.041	1444.0909	1483.4	1503.3078	1514.1938	1864.796	2959.9036	3055.521	3062.0684	3073.5342	3105.8831	3119.6035	3198.6283	3490.7641	3757.7025
OCC1CC2(CN2)C1=O	OC[C@H]1C[C@]2(CN2)C1=O	
InChI=1S/C6H9NO2/c8-2-4-1-6(3-7-6)5(4)9/h4,7-8H,1-3H2	InChI=1S/C6H9NO2/c8-2-4-1-6(3-7-6)5(4)9/h4,7-8H,1-3H2/t4-,6+/m1/s1
