17
gdb 106096	2.43643	1.61723	1.22314	3.6053	72.43	-0.2387	0.0037	0.2424	1049.1031	0.136268	-421.788809	-421.78105	-421.780106	-421.82143	29.686	
O	 0.1119375941	 1.3870325112	-0.2232922668	-0.405861
C	 0.0454934297	 0.0115952366	 0.1118062962	-0.21413
C	-1.3542961067	-0.5060849406	 0.1602421661	 0.333634
C	-2.0105429895	-1.8430542119	 0.0474022855	-0.135245
C	-2.926850244	-1.571010214	 1.2447945404	-0.240813
C	-2.6414428557	-0.0643044558	 0.9832403598	-0.228877
C	-3.2708446881	 0.1859202786	-0.401762098	 0.446159
O	-4.0370918187	 1.0012276351	-0.8324489192	-0.344248
C	-2.3200565443	-0.7863783569	-1.027370075	-0.254513
H	-0.321157123	 1.5034162267	-1.0759984383	 0.28944
H	 0.6344060966	-0.6118879488	-0.5806885578	 0.096892
H	 0.515635757	-0.0708468178	 1.0979719697	 0.123014
H	-1.5613054627	-2.7807349966	-0.2574247895	 0.102853
H	-3.9706639765	-1.8989578806	 1.1941779885	 0.108227
H	-2.4718169988	-1.9176217955	 2.1761088294	 0.11259
H	-2.6927015652	 0.6895962919	 1.7631957551	 0.10152
H	-2.0701791642	-0.9405188215	-2.0688842263	 0.109359
81.3897	96.3014	209.8628	250.6417	335.4253	381.2611	442.4465	499.7708	583.1463	643.9003	705.7182	751.3263	770.3881	857.549	885.6885	929.5442	941.3714	981.2132	991.6443	999.4008	1061.619	1066.5103	1085.9205	1113.8167	1136.0679	1143.1152	1184.7395	1202.8564	1231.1633	1286.593	1297.1988	1364.61	1411.3592	1446.4563	1498.0694	1501.2703	1879.9984	2972.7306	3044.2933	3064.5098	3106.4867	3172.3998	3187.3288	3211.1166	3806.3403
OCC12C3CC1C(=O)C23	OC[C@@]12[C@H]3C[C@@H]1C(=O)[C@@H]23	
InChI=1S/C7H8O2/c8-2-7-3-1-4(7)6(9)5(3)7/h3-5,8H,1-2H2	InChI=1S/C7H8O2/c8-2-7-3-1-4(7)6(9)5(3)7/h3-5,8H,1-2H2/t3-,4+,5-,7+/m0/s1
