17
gdb 40387	4.08138	1.25865	1.14595	2.5477	71.56	-0.2192	0.0539	0.2731	1090.6914	0.136033	-417.864758	-417.857351	-417.856407	-417.897206	28.944	
C	-0.3985029458	 1.1609921729	-0.6135670748	-0.226575
N	 0.7775270295	 1.4438561452	 0.2250719026	-0.312743
C	 0.2500331855	 0.0666161918	 0.1484945884	-0.188362
C	-0.3249453251	-0.4652443162	 1.4022946352	 0.500459
O	-1.4152298846	-1.3888429763	 1.3458591389	-0.262777
C	-1.5623459475	-0.213217292	 2.1433945801	-0.065516
C	-0.8060759893	-0.4199834657	 3.5048161196	-0.089759
N	-0.2227463964	-1.7836387471	 3.4995742591	-0.316204
C	 0.4450057575	-0.6839984795	 2.7652672778	-0.151961
H	-1.3285584748	 1.5883772653	-0.2518034711	 0.122448
H	-0.2872972047	 1.1606790558	-1.6943034883	 0.117125
H	 1.6065292342	 1.5256875995	-0.357601869	 0.235301
H	 0.8241348156	-0.6589649335	-0.4266344294	 0.09755
H	-2.4066884842	 0.4370813167	 1.9481654748	 0.10834
H	-0.9732852611	 0.1386792953	 4.4154803726	 0.099851
H	 0.2773295894	-1.8833147845	 4.3841513	 0.231224
H	 1.4570808918	-0.3653133877	 2.9739331235	 0.101596
50.4423	141.4294	170.1953	311.4917	405.3325	447.1182	505.3861	586.1186	664.698	755.9146	805.6427	811.9328	819.7957	870.7406	881.5974	891.4352	902.2062	925.8062	948.9364	967.2642	998.5642	1022.4736	1071.1805	1096.8391	1106.4751	1121.0583	1134.7218	1186.7006	1217.1252	1252.9303	1279.5895	1286.7359	1294.63	1343.1792	1416.1116	1497.8146	1516.4994	3111.0466	3116.5194	3187.1712	3202.0804	3204.5467	3216.8627	3461.7551	3505.52
C1NC1C12OC1C1NC21	C1N[C@H]1[C@]12O[C@H]1[C@H]1N[C@@H]21	
InChI=1S/C6H8N2O/c1-2(7-1)6-4-3(8-4)5(6)9-6/h2-5,7-8H,1H2	InChI=1S/C6H8N2O/c1-2(7-1)6-4-3(8-4)5(6)9-6/h2-5,7-8H,1H2/t2-,3+,4-,5+,6-/m1/s1
