18
gdb 127026	4.71484	0.89669	0.76424	1.5227	76.75	-0.2221	0.0062	0.2283	1499.5522	0.147915	-435.271518	-435.262324	-435.261379	-435.306823	31.787	
C	-0.0376964665	 1.4471674838	 0.0349636581	-0.393753
C	 0.0017387569	-0.0687915245	 0.0299890836	-0.039152
O	-1.3533591779	-0.5375733539	 0.0000270751	-0.274112
C	-1.5193779019	-1.8651849641	-0.0083002726	 0.393996
N	-0.5252220149	-2.751619306	 0.0085171133	-0.35057
N	-1.168569358	-3.9262006127	-0.0097526427	 0.153542
C	-0.4575437549	-5.1843134541	 0.0043370019	-0.309926
N	-2.4903716156	-3.8562039444	-0.0358021382	-0.219329
C	-2.7489071571	-2.5481266212	-0.0364467919	-0.15716
H	 0.9807641417	 1.8459085873	 0.0576231904	 0.120837
H	-0.5379078591	 1.8255738612	-0.8608881089	 0.130219
H	-0.5747032455	 1.8187986556	 0.9121566626	 0.130214
H	 0.537820022	-0.4583496638	-0.8438243746	 0.115996
H	 0.501113886	-0.4650982271	 0.9223218028	 0.115979
H	 0.1412572079	-5.272519868	 0.9151325071	 0.147631
H	-1.203066695	-5.9774674968	-0.0287427271	 0.162001
H	 0.2030993654	-5.2555835352	-0.8639564174	 0.148009
H	-3.7546083635	-2.1638694062	-0.0561603916	 0.125579
50.6021	64.045	93.805	137.4279	175.9727	241.9021	319.7013	364.6956	375.1385	497.0329	658.577	679.7968	726.7744	800.7853	814.1253	837.5873	919.7199	1006.4235	1035.1569	1071.326	1102.185	1137.9255	1150.4923	1183.8493	1199.5701	1293.6476	1360.1242	1376.5359	1391.4231	1415.6995	1430.154	1449.1161	1473.3808	1476.1108	1483.3756	1497.8852	1514.405	1520.6769	1593.6358	3027.284	3046.4742	3051.2738	3063.6663	3114.311	3121.3953	3124.6656	3173.6113	3283.7083
CCOC1=NN(C)N=C1	CCOc1nn(C)nc1	
InChI=1S/C5H9N3O/c1-3-9-5-4-6-8(2)7-5/h4H,3H2,1-2H3	InChI=1S/C5H9N3O/c1-3-9-5-4-6-8(2)7-5/h4H,3H2,1-2H3
