18
gdb 8601	4.15786	1.93347	1.75309	1.5612	73.38	-0.2278	0.0641	0.2919	816.8512	0.154743	-347.676951	-347.670332	-347.669387	-347.70718	27.443	
O	 0.1325377381	 1.4729514129	-0.1353656341	-0.413107
C	 0.0721829754	 0.0709845461	-0.0149711354	 0.057106
C	 0.2505438607	-0.5402457021	 1.4568573807	-0.375609
C	-1.2862081891	-0.6695293735	 1.4732292494	 0.292262
C	-2.6314396873	-1.4613858579	 1.4581280529	-0.306386
C	-2.79693657	-0.2270222682	 0.456858808	-0.086819
C	-2.1419742014	 0.6401098483	 1.5490524686	-0.242827
C	-1.3617891173	-0.5915482723	-0.055741124	 0.000268
H	 1.0424356728	 1.7454948385	 0.0233385768	 0.285554
H	 0.7370917595	-0.4031615207	-0.7501358757	 0.073169
H	 0.7836653434	-1.4948367088	 1.4170047431	 0.10385
H	 0.7122752153	 0.1052369279	 2.2110903589	 0.09586
H	-2.6050860227	-2.4566064515	 1.005734894	 0.093256
H	-3.2663329426	-1.4397541449	 2.3501278933	 0.090184
H	-3.6959377519	 0.0006933463	-0.1236769372	 0.067393
H	-2.7119318259	 0.7759171434	 2.4732081953	 0.077959
H	-1.6658467776	 1.5619236919	 1.2242474148	 0.124236
H	-1.2985090594	-1.5458285155	-0.5875029395	 0.06365
200.8054	227.5521	263.3224	355.7952	414.5356	461.0664	542.8641	619.8988	708.5973	758.6847	777.2842	806.757	841.5255	882.4595	923.8684	933.0545	993.1462	1010.2258	1017.3509	1036.6474	1054.8494	1095.7307	1128.5175	1145.5709	1165.7114	1186.5982	1197.5806	1204.4367	1209.5528	1223.2176	1251.0276	1263.4121	1304.034	1370.9571	1417.0584	1462.7986	1496.7269	1539.3793	2992.1372	3035.9813	3041.1627	3051.4696	3053.6829	3068.0995	3103.2345	3109.5329	3170.8448	3805.6198
OC1CC23CC(C2)C13	O[C@H]1C[C@@]23C[C@@H](C2)[C@@H]13	
InChI=1S/C7H10O/c8-5-3-7-1-4(2-7)6(5)7/h4-6,8H,1-3H2	InChI=1S/C7H10O/c8-5-3-7-1-4(2-7)6(5)7/h4-6,8H,1-3H2/t4-,5-,6-,7+/m0/s1
