18
gdb 61987	3.67656	0.81183	0.74998	6.7995	73.48	-0.2665	0.0348	0.3013	1519.616	0.147477	-435.327402	-435.317309	-435.316365	-435.363127	35.867	
C	 0.3218717409	 1.1232224142	 0.5560995447	-0.390384
C	-0.3288306465	-0.121065829	-0.0727601234	-0.128911
C	-1.8217491054	 0.0937172922	-0.4363290844	-0.160772
N	-2.6249436641	 0.4241587416	 0.7296272156	-0.340889
C	-3.0230354828	-0.5897331919	 1.5791712406	 0.450532
N	-3.9764800604	-0.2135588537	 2.5116914907	-0.565103
O	-2.5838739004	-1.7223593037	 1.4967903846	-0.384212
C	 0.4001317008	-0.53834011	-1.2728714949	 0.265001
N	 0.9660678769	-0.847710424	-2.2321481103	-0.324037
H	 1.3524936707	 0.9166771262	 0.8534379603	 0.139076
H	 0.332552393	 1.9592327227	-0.1501686325	 0.128558
H	-0.2447807203	 1.4204763571	 1.4411805657	 0.126215
H	-0.2985933327	-0.952402121	 0.6395554989	 0.159047
H	-1.9079225944	 0.9167351341	-1.1509393043	 0.116848
H	-2.1995229273	-0.8169546072	-0.9110681738	 0.145791
H	-3.2138147679	 1.2379573018	 0.6614581387	 0.247066
H	-3.9908862302	 0.746075375	 2.8219649866	 0.25005
H	-4.0892363099	-0.8903778246	 3.2508849872	 0.266124
52.638	72.4542	87.318	167.6143	215.1918	246.5261	253.0016	319.5323	349.0533	390.8064	439.007	499.407	540.0732	556.324	568.0948	690.6941	778.3029	822.2962	869.4834	917.186	961.0048	1074.235	1094.2034	1118.5074	1135.7588	1178.1366	1272.2822	1330.1437	1334.2827	1357.3505	1395.7391	1414.3797	1471.628	1497.7756	1498.7007	1530.2451	1628.8649	1799.3098	2356.1906	3048.6216	3053.8239	3067.6325	3109.5994	3123.4762	3137.2341	3578.9701	3638.0506	3693.5795
CC(CNC(N)=O)C#N	C[C@@H](CNC(=O)N)C#N	
InChI=1S/C5H9N3O/c1-4(2-6)3-8-5(7)9/h4H,3H2,1H3,(H3,7,8,9)	InChI=1S/C5H9N3O/c1-4(2-6)3-8-5(7)9/h4H,3H2,1H3,(H3,7,8,9)/t4-/m1/s1
