21
gdb 116957	7.46859	0.45681	0.44501	1.6743	89.91	-0.2432	0.0535	0.2967	2506.6578	0.180397	-387.047321	-387.036779	-387.035835	-387.085688	36.472	
C	-0.0182904094	 1.5487229618	 0.1583915953	-0.381413
C	 0.0036289665	 0.024022232	 0.0347223422	-0.152846
C	-1.4144156127	-0.5815753752	-0.0083841798	-0.334293
C	-1.4170410727	-2.0360538816	-0.1206225872	 0.04932
C	-1.3854920951	-3.2370264967	-0.205090183	 0.094138
C	-1.3914177669	-4.6930130488	-0.312644005	-0.380597
C	-2.7881388788	-5.2854417121	-0.2282957886	 0.113522
C	-3.0164724539	-6.6373821493	 0.2930367298	-0.181996
O	-3.3240787259	-5.4823258976	 1.0770895805	-0.224877
H	 0.996122003	 1.9577420613	 0.1866958429	 0.114075
H	-0.5394013633	 2.0090381957	-0.6886164739	 0.115073
H	-0.5308248998	 1.865766914	 1.0735074684	 0.116284
H	 0.543212246	-0.2735298969	-0.871373479	 0.106869
H	 0.5498735992	-0.4152534139	 0.876865949	 0.108997
H	-1.9624346711	-0.2825416684	 0.8954808443	 0.126474
H	-1.9672469165	-0.1454026705	-0.8516836719	 0.122432
H	-0.9400134133	-4.9994649655	-1.2666771501	 0.128423
H	-0.7800671849	-5.1376943327	 0.4822472119	 0.132432
H	-3.5012176736	-4.8802811626	-0.9469409676	 0.100355
H	-3.8729691692	-7.2157097968	-0.0503430992	 0.115214
H	-2.1701821078	-7.2274489861	 0.643945581	 0.112414
12.5924	50.9366	71.6182	88.1659	140.2349	225.6998	241.092	302.1782	316.3408	384.1779	390.1591	498.1359	516.7072	743.4077	784.5328	799.5143	860.819	872.7826	894.7364	939.6212	960.8115	1041.6939	1095.293	1107.0488	1109.0926	1122.0581	1158.0849	1162.5863	1170.3072	1245.2619	1259.1397	1293.5942	1306.3652	1321.0269	1321.3016	1380.732	1412.0971	1438.4834	1456.1299	1474.8142	1491.9172	1499.0843	1508.825	1531.3781	2369.9635	3008.3748	3011.3309	3029.6446	3034.8278	3041.076	3053.1619	3073.0486	3080.9197	3100.1785	3105.2347	3109.9725	3166.9
CCCC#CCC1CO1	CCCC#CC[C@H]1CO1	
InChI=1S/C8H12O/c1-2-3-4-5-6-8-7-9-8/h8H,2-3,6-7H2,1H3	InChI=1S/C8H12O/c1-2-3-4-5-6-8-7-9-8/h8H,2-3,6-7H2,1H3/t8-/m0/s1
