20
gdb 60930	2.4237	1.26482	1.00483	2.7378	76.47	-0.2366	0.0146	0.2512	1249.7196	0.169221	-440.283741	-440.273658	-440.272714	-440.318785	36.28	
C	-0.2996429637	 1.4480736535	-0.2492154276	-0.418624
C	-0.0551044993	-0.0190987839	 0.0305520541	-0.085932
C	 1.264071034	-0.6635297381	-0.3074784251	 0.110662
O	 2.3323641924	 0.1011030361	-0.7794681839	-0.42294
C	 0.8446564397	-0.5590748976	 1.1460276588	-0.077411
N	 1.6156537092	 0.3129967124	 1.9863636126	-0.074802
C	 2.9417442217	-0.1621886367	 2.3863970226	-0.352631
C	 0.9991116496	 1.2584732105	 2.7731173853	 0.159125
O	 1.5358073985	 1.8807416721	 3.6627593374	-0.334099
H	 0.5801455827	 2.0673528229	-0.0621770967	 0.120759
H	-0.5729658919	 1.5820707326	-1.3009425767	 0.131715
H	-1.1175450414	 1.8424069193	 0.3617417878	 0.127712
H	-0.927570567	-0.6448272435	-0.1395287715	 0.097953
H	 1.2722462536	-1.6426591336	-0.7735418864	 0.111199
H	 2.472228367	 0.8312793438	-0.1653490226	 0.294254
H	 0.510240453	-1.4761611155	 1.6317923314	 0.097667
H	 3.4154327766	 0.6163702566	 2.9835270071	 0.164203
H	 2.8643743768	-1.0737667324	 2.9934322666	 0.126394
H	 3.5402148252	-0.3826706303	 1.5003520961	 0.139348
H	-0.0570445666	 1.4046763421	 2.4863276309	 0.085449
64.7091	117.2768	148.5681	153.8372	180.3093	210.1888	253.3432	285.0443	318.682	341.3055	373.7377	484.9822	553.7605	628.1727	712.9078	762.2258	796.8879	861.1941	936.5645	992.2786	1029.4321	1042.2154	1077.0765	1113.0093	1128.7222	1146.0221	1152.0212	1165.5961	1221.8222	1278.125	1309.8645	1363.594	1371.4967	1390.3535	1420.945	1435.1905	1441.2016	1461.0394	1491.1018	1498.7975	1504.6047	1519.3473	1798.1783	2983.9376	3021.954	3042.2046	3087.4656	3101.3788	3107.9296	3120.2348	3141.6469	3167.3767	3174.3398	3795.3581
CC1C(O)C1N(C)C=O	C[C@H]1[C@@H](O)[C@H]1N(C)C=O	
InChI=1S/C6H11NO2/c1-4-5(6(4)9)7(2)3-8/h3-6,9H,1-2H3	InChI=1S/C6H11NO2/c1-4-5(6(4)9)7(2)3-8/h3-6,9H,1-2H3/t4-,5+,6-/m1/s1
