20
gdb 11957	3.35675	1.64793	1.33134	1.766	75.55	-0.2369	0.0873	0.3243	1026.7142	0.175449	-348.988411	-348.979739	-348.978795	-349.021346	32.529	
C	 0.3000933065	 1.4642460258	-0.1888769855	-0.37639
C	-0.1773427158	 0.0285460836	 0.0744195286	-0.297275
C	 0.4131583418	-0.5512969439	 1.3225522035	 0.366995
C	 0.0903457171	-0.206226528	 2.789557909	-0.284985
C	 0.5638314092	-1.647489755	 3.1845736591	-0.279613
C	 0.8628152836	-1.9108092938	 1.6976236906	 0.342027
C	 0.8874174397	-3.218183517	 0.9745947242	-0.499448
O	 1.8118093113	-0.9023460569	 1.3029025438	-0.332175
H	 1.3890407049	 1.493673382	-0.2874292227	 0.135212
H	-0.1387725338	 1.8601717627	-1.1093740346	 0.111697
H	 0.0185049092	 2.1328996281	 0.6312164665	 0.118326
H	-1.271502524	 0.0077414804	 0.1570505072	 0.0987
H	 0.0919364322	-0.6121709645	-0.7727982111	 0.105882
H	 0.6593861193	 0.6287026939	 3.2053336985	 0.105729
H	-0.9757600338	-0.0485395753	 2.9734468048	 0.099509
H	 1.4300485246	-1.7175630046	 3.8472655612	 0.104701
H	-0.2482728202	-2.2634800821	 3.5797563039	 0.099555
H	-0.0166064748	-3.7981342842	 1.1874975854	 0.120833
H	 0.9593726701	-3.0627982005	-0.1051954388	 0.130687
H	 1.7510907828	-3.8164737806	 1.2875425464	 0.130032
75.9667	139.4849	183.0702	196.1176	226.7808	264.4146	330.5287	349.9498	492.5663	512.6884	594.0169	706.0728	720.0639	773.0429	786.6206	879.0935	904.8344	934.7845	972.3521	991.057	1004.9058	1061.1335	1101.7635	1127.5753	1174.1954	1199.6789	1216.5284	1218.7306	1231.0873	1300.6211	1316.4215	1357.9154	1406.4362	1409.8025	1462.1313	1463.9418	1471.9036	1480.8083	1490.5195	1498.6701	1505.5242	1525.127	3025.7366	3031.5677	3039.2342	3056.791	3064.8565	3067.6078	3092.3501	3107.2245	3108.1111	3117.8312	3118.5138	3124.468
CCC12CCC1(C)O2	CC[C@@]12CC[C@]1(C)O2	
InChI=1S/C7H12O/c1-3-7-5-4-6(7,2)8-7/h3-5H2,1-2H3	InChI=1S/C7H12O/c1-3-7-5-4-6(7,2)8-7/h3-5H2,1-2H3/t6-,7+/m0/s1
