18
gdb 92524	2.81892	1.60447	1.18038	2.6766	72.58	-0.2425	0.0232	0.2657	1062.3417	0.149369	-439.110879	-439.1029	-439.101956	-439.143676	29.452	
C	-0.0900910874	 1.4225426389	-0.0946858246	-0.344716
N	-0.0601277199	-0.0161723424	 0.0206254774	-0.078249
C	-1.250108889	-0.7937208551	 0.3173657084	-0.190046
C	-0.7795472825	-2.2466013689	 0.1961664663	 0.116116
O	-0.8844153364	-2.7599950762	-1.1493929499	-0.291805
C	 0.5478156502	-2.9431276085	-1.2400073472	-0.079483
C	 0.756103932	-2.2102318888	 0.1021646512	-0.211718
C	 1.1055756766	-0.7345549062	-0.0614963469	 0.415227
O	 2.2119996787	-0.2719770852	-0.2539981587	-0.401146
H	 0.9295509442	 1.7589960253	-0.2896753566	 0.16662
H	-0.7423159416	 1.7389819328	-0.9177676707	 0.126778
H	-0.4541486555	 1.8875543736	 0.8305380029	 0.122558
H	-1.6306726621	-0.5678314597	 1.3246049897	 0.103587
H	-2.0532784107	-0.5950159269	-0.4029753396	 0.124022
H	-1.2526427149	-2.9137918079	 0.9229181293	 0.084166
H	 0.8222987898	-4.0047782695	-1.2204715585	 0.107612
H	 0.9767459318	-2.4718511836	-2.1303879003	 0.123798
H	 1.3778397467	-2.6936448216	 0.8539616179	 0.106677
101.7284	115.9256	161.9944	195.7627	266.3049	305.3886	368.9068	469.2579	619.0201	632.2613	729.1623	773.2208	834.517	882.9421	904.4933	951.3334	989.8032	1008.325	1058.1638	1063.9006	1085.432	1129.6602	1153.3576	1159.907	1216.3716	1223.4191	1261.0892	1285.9712	1297.165	1318.9992	1347.9741	1360.9712	1430.2961	1447.7694	1493.6322	1501.0349	1525.8906	1534.4336	1802.1251	2991.4851	3013.6681	3023.6981	3048.3822	3062.4364	3063.0476	3079.188	3131.8178	3143.6156
CN1CC2OCC2C1=O	CN1C[C@H]2OC[C@H]2C1=O	
InChI=1S/C6H9NO2/c1-7-2-5-4(3-9-5)6(7)8/h4-5H,2-3H2,1H3	InChI=1S/C6H9NO2/c1-7-2-5-4(3-9-5)6(7)8/h4-5H,2-3H2,1H3/t4-,5-/m1/s1
