17
gdb 16683	4.16055	1.75107	1.61248	2.2355	67.93	-0.2169	-0.0108	0.2061	857.5204	0.143886	-363.84349	-363.836773	-363.835829	-363.874111	26.677	
C	-0.1572631263	 1.5166354289	 0.0722864811	-0.428913
C	 0.0254141235	 0.0122990826	-0.0215093717	 0.062967
C	 0.748725133	-0.5849662033	-1.2783036551	-0.148245
C	 2.0390385266	-0.2631034552	-0.4701730237	-0.202904
N	 1.2095684758	-0.5407117506	 0.7714943565	-0.130941
C	 0.9745806225	-2.0006402681	 0.5923319931	-0.290278
C	 0.6245900299	-2.0614474082	-0.9190696043	 0.419042
O	 0.332848578	-3.0061237647	-1.5990268706	-0.329202
H	 0.7190424969	 2.0817379165	-0.2532503995	 0.124184
H	-1.0049154587	 1.8265772557	-0.547015573	 0.124865
H	-0.3716097147	 1.7948347383	 1.1087325273	 0.135126
H	-0.9166452663	-0.4756465118	 0.2542151995	 0.083272
H	 0.5575379009	-0.2992906981	-2.3112719974	 0.083971
H	 2.9115324306	-0.9103514285	-0.5949317797	 0.11415
H	 2.3493970166	 0.7799855884	-0.5104341121	 0.121528
H	 1.8699147512	-2.5806283673	 0.8331981026	 0.130395
H	 0.1514908003	-2.3535640045	 1.219991717	 0.130983
144.5807	201.5942	262.5228	316.4636	446.9689	466.1539	523.8911	608.3317	616.3428	753.0291	788.2586	813.0531	843.8616	851.9663	972.5563	978.8566	999.811	1022.6932	1056.4474	1084.6267	1095.1684	1160.509	1169.1003	1189.25	1214.7808	1230.2057	1250.33	1266.0733	1299.7787	1402.906	1418.6808	1468.9212	1492.5408	1494.5485	1533.3619	1875.8564	3035.2003	3045.3634	3062.247	3070.9463	3111.0091	3113.3481	3125.2061	3135.7418	3145.4612
CC1C2CN1CC2=O	C[C@H]1[C@H]2CN1CC2=O	
InChI=1S/C6H9NO/c1-4-5-2-7(4)3-6(5)8/h4-5H,2-3H2,1H3	InChI=1S/C6H9NO/c1-4-5-2-7(4)3-6(5)8/h4-5H,2-3H2,1H3/t4-,5+/m0/s1
