17
gdb 84073	2.44682	1.5321	1.01044	1.6376	70.85	-0.2628	-0.0387	0.2242	1154.2524	0.133804	-458.986232	-458.977099	-458.976155	-459.019968	33.466	
C	 0.0243794032	 1.5375140404	 0.1194571131	-0.491793
C	 0.0014975608	 0.0500328618	 0.000983459	 0.283841
C	 0.0139614622	-0.6952286774	-1.1127747757	-0.210369
C	-0.0328009683	-2.1834138583	-0.8389029801	 0.029222
O	 0.8446200415	-2.9630823275	-1.6141192963	-0.441117
C	 0.361082849	-2.1573867586	 0.6371161342	 0.301887
O	 1.107308575	-2.9447387225	 1.1660996978	-0.328538
C	-0.0664011001	-0.824927709	 1.2459802537	-0.02805
O	 0.7717778042	-0.4234684557	 2.3015071816	-0.438936
H	 0.8457586714	 1.8489668922	 0.7731665879	 0.153106
H	 0.1437744585	 2.0157539037	-0.8559147081	 0.127457
H	-0.8998867892	 1.9104788336	 0.5787574295	 0.132636
H	 0.0331356345	-0.308431057	-2.1255223819	 0.111622
H	-1.0609541027	-2.5734687208	-0.9424646768	 0.10231
H	 1.3888577926	-3.4633475869	-0.9900593432	 0.295796
H	-1.1077575722	-0.8958443607	 1.6077306642	 0.103402
H	 1.3314865695	-1.1855734572	 2.5078563708	 0.297524
73.7871	146.4039	183.4753	210.4434	227.597	263.4128	305.6531	317.8905	331.6825	415.5365	499.2553	560.76	595.7788	684.0627	725.8804	815.7365	885.9639	932.4536	997.8345	1016.4351	1041.2039	1060.9324	1117.2564	1151.5885	1181.026	1225.316	1249.573	1304.9245	1348.9837	1352.0449	1398.0569	1404.8719	1411.4632	1472.6669	1486.4903	1699.7066	1834.4308	2941.351	2945.1223	3026.9885	3085.3542	3123.1517	3197.9483	3737.789	3744.7038
CC1=CC(O)C(=O)C1O	CC1=C[C@@H](O)C(=O)[C@H]1O	
InChI=1S/C6H8O3/c1-3-2-4(7)6(9)5(3)8/h2,4-5,7-8H,1H3	InChI=1S/C6H8O3/c1-3-2-4(7)6(9)5(3)8/h2,4-5,7-8H,1H3/t4-,5+/m1/s1
