21
gdb 82764	2.69686	1.85257	1.48611	1.4411	80.45	-0.2335	0.0933	0.3268	982.6756	0.186357	-387.085984	-387.079043	-387.078098	-387.116873	29.506	
C	-0.0626336729	 1.5560709478	 0.0191940849	-0.433156
C	 0.0646358949	 0.0343130933	-0.0265903674	 0.063893
C	 0.9485755296	-0.5503656906	-1.1515396435	-0.08619
C	 2.3805099435	-0.131639614	-0.720401887	-0.259729
C	 2.1214953831	-1.0942331303	 0.4563870007	-0.056372
C	 1.2987288272	-1.9589862465	-0.5271582841	 0.147534
O	 0.2797361378	-2.6527913739	 0.1658145366	-0.284457
C	 0.1327099351	-1.9759182458	 1.4283546214	-0.089196
C	 0.8192549273	-0.6293704962	 1.1803359135	-0.072036
H	 0.8989697486	 2.0571870361	 0.1629690944	 0.117031
H	-0.5019194104	 1.9400555349	-0.9083823149	 0.113731
H	-0.7146847567	 1.8617060027	 0.8447701762	 0.112571
H	-0.9433177044	-0.388391696	-0.1013856858	 0.076403
H	 0.5982752236	-0.4340508553	-2.1780680143	 0.057021
H	 3.1498594926	-0.5186366507	-1.3941906536	 0.09871
H	 2.5796561344	 0.9206106662	-0.5129951074	 0.097422
H	 2.9176229903	-1.5040862778	 1.0784697386	 0.062879
H	 1.8359989531	-2.6393309827	-1.1884511578	 0.079464
H	-0.9339060647	-1.8842964082	 1.6600071424	 0.102537
H	 0.6167549497	-2.5595529732	 2.2258810043	 0.088513
H	 0.9380454982	-0.0021452899	 2.0653337029	 0.063426
180.8113	223.6998	272.2973	322.8144	388.3262	420.6251	512.408	608.1324	703.1991	717.0669	799.2375	810.7985	817.5478	876.9061	903.8364	932.2772	945.778	958.5578	970.0723	1011.8237	1022.5516	1027.288	1049.3365	1071.299	1092.5801	1104.6263	1140.2389	1146.0152	1191.6675	1196.3415	1215.5052	1233.014	1245.4341	1264.5955	1272.06	1316.0452	1327.8966	1332.8682	1381.2491	1397.9717	1413.1923	1493.7018	1499.1398	1520.0392	1522.9924	2988.3008	3030.6383	3038.7113	3065.4576	3067.3833	3091.1146	3099.5863	3103.1235	3106.6485	3109.1641	3122.0628	3125.2313
CC1C2CC3C2OCC13	C[C@H]1[C@H]2C[C@@H]3[C@H]2OC[C@H]13	
InChI=1S/C8H12O/c1-4-5-2-6-7(4)3-9-8(5)6/h4-8H,2-3H2,1H3	InChI=1S/C8H12O/c1-4-5-2-6-7(4)3-9-8(5)6/h4-8H,2-3H2,1H3/t4-,5+,6-,7+,8-/m0/s1
