20
gdb 110637	2.45285	1.37427	1.06257	2.8203	78.98	-0.2179	0.0649	0.2828	1216.1022	0.169895	-403.044288	-403.035506	-403.034562	-403.07766	34.072	
C	-0.956241612	 1.2927350131	-0.5336614874	-0.400738
C	-0.034538663	 0.2241829616	 0.0692413038	-0.219933
C	 0.7427541435	-0.5203156314	-1.0187203751	-0.069214
C	 2.079725745	-1.2722368303	-1.0545075584	-0.114333
N	 2.4519666922	-2.2757312218	 0.0176827444	-0.13217
C	 1.4411055922	-2.3048550463	 1.0909425791	-0.251126
C	 1.1170370011	-2.932358013	-0.2108883407	-0.112753
C	 0.79132521	-1.9752525973	-1.3854373959	 0.339599
O	 0.3890887865	-2.4892340328	-2.6049548166	-0.450889
H	-0.3817700739	 2.0426625284	-1.0880769476	 0.121437
H	-1.6767983083	 0.8471764289	-1.2283477086	 0.114467
H	-1.5211725662	 1.8128039418	 0.2458255725	 0.114673
H	 0.6577746312	 0.7048633526	 0.7714599384	 0.112037
H	-0.6416339993	-0.4737041666	 0.6547396238	 0.108788
H	 0.7294339503	 0.0383765381	-1.9573766604	 0.097554
H	 2.8893250367	-0.9309949585	-1.6871440601	 0.107645
H	 1.7264136782	-2.9854774451	 1.8902560055	 0.12075
H	 0.9772843746	-1.3929013149	 1.4344105741	 0.123773
H	 1.0576903584	-4.0075555505	-0.3493608986	 0.104429
H	-0.5739204072	-2.469537486	-2.6397856424	 0.286003
62.7875	171.502	177.6441	231.1809	255.7769	290.9903	325.8179	370.4793	408.3565	511.5052	571.6366	656.8026	679.2962	746.4402	782.5721	804.2326	861.1309	895.5365	943.9418	952.9139	982.7532	1008.2247	1041.3255	1069.9119	1088.1068	1108.0249	1127.6619	1135.3599	1148.6992	1194.9295	1230.6869	1241.1254	1300.9617	1311.7734	1327.438	1337.9063	1376.2381	1411.4216	1484.4721	1493.5096	1499.8306	1504.6732	1509.0053	3025.0486	3031.1656	3064.4168	3087.8662	3100.4088	3106.9594	3125.2928	3160.558	3193.4507	3258.9377	3786.6674
CCC1C2N3CC3C12O	CC[C@H]1[C@H]2N3C[C@H]3[C@@]12O	
InChI=1S/C7H11NO/c1-2-4-6-7(4,9)5-3-8(5)6/h4-6,9H,2-3H2,1H3	InChI=1S/C7H11NO/c1-2-4-6-7(4,9)5-3-8(5)6/h4-6,9H,2-3H2,1H3/t4-,5-,6+,7-,8?/m0/s1
