19
gdb 111357	2.06525	1.64527	1.01927	3.7045	79.56	-0.2377	0.0056	0.2433	1210.4964	0.157982	-419.143025	-419.133835	-419.132891	-419.177287	33.082	
C	 0.5786325221	 1.0887096824	 0.5977313725	-0.241963
O	-0.253546342	 0.3534389049	-0.2783440123	-0.239731
C	 0.4602570194	-0.3386997694	-1.2643418956	 0.008783
C	 1.218194551	-1.6227832075	-0.9004887345	-0.072369
C	 0.2883108173	-2.6808673115	-0.4757679053	-0.241308
N	 0.4254057148	-2.429668425	-1.9378316107	-0.160589
C	-0.3776276424	-1.2436296474	-2.1832205373	 0.352925
N	-1.3438778396	-1.1494515114	-2.9711409216	-0.283114
C	-2.0040259032	 0.1380421574	-3.1170436708	-0.339175
H	 1.2560862758	 0.4312182148	 1.1614167308	 0.11554
H	 1.1841427169	 1.8281965794	 0.0517025216	 0.110137
H	-0.0737908494	 1.6110766229	 1.3004311548	 0.135384
H	 1.0981254765	 0.3466031785	-1.8455412345	 0.093137
H	 2.2954846154	-1.7256319647	-0.8489819124	 0.105732
H	 0.7089655879	-3.6353845525	-0.1779337493	 0.133289
H	-0.6452287607	-2.4128226098	 0.0107711735	 0.139315
H	-3.0677476933	 0.0165580412	-2.8853377713	 0.132596
H	-1.5981889481	 0.9319469745	-2.4778540809	 0.123041
H	-1.9433133582	 0.4507433932	-4.1655315867	 0.12837
77.7744	111.0864	138.581	162.9781	197.1953	233.5112	248.8896	324.3931	365.9879	530.0885	572.7188	643.3575	671.5596	755.5446	817.9065	879.4411	947.7538	1012.8574	1033.4693	1053.4596	1065.3806	1075.0684	1114.9874	1129.3748	1145.5592	1161.4941	1180.4292	1188.1079	1215.5234	1231.7535	1262.1289	1357.0097	1371.572	1441.8681	1478.7287	1485.984	1488.4589	1499.4567	1501.5827	1506.8849	1833.0566	2977.6534	2984.4562	3012.714	3034.7167	3083.6042	3085.4755	3124.0219	3124.8682	3187.7924	3217.8146
COC1C2CN2C1=NC	CO[C@H]1[C@H]2CN2C1=NC	
InChI=1S/C6H10N2O/c1-7-6-5(9-2)4-3-8(4)6/h4-5H,3H2,1-2H3	InChI=1S/C6H10N2O/c1-7-6-5(9-2)4-3-8(4)6/h4-5H,3H2,1-2H3/t4-,5+,8?/m1/s1
