19
gdb 85282	2.51477	1.5609	1.16795	4.475	75.95	-0.2285	0.0245	0.253	1109.2055	0.160085	-419.23546	-419.22686	-419.225916	-419.2683	33.136	
C	-0.1152456777	 1.542899462	 0.0562011066	-0.400592
C	 0.0199841884	 0.021685422	-0.0104077722	 0.007137
N	 0.841097799	-0.4291978182	-1.1287136226	-0.337299
C	 1.8592036305	-1.2977320557	-0.8317724105	 0.46733
O	 2.5813451988	-1.8630474543	-1.6230989638	-0.38982
C	 1.8689302812	-1.4070940814	 0.6761778385	-0.241218
N	 2.119255098	-0.0805120289	 1.3099256433	-0.362529
C	 0.7426585205	-0.5960400225	 1.1995776087	 0.32614
C	-0.0544157221	-0.9350163344	 2.4303575147	-0.498838
H	 0.8684901464	 1.9973401977	 0.1914426421	 0.148873
H	-0.5674909296	 1.935862024	-0.8601450743	 0.11271
H	-0.7601233822	 1.8336625606	 0.8920913797	 0.116039
H	-0.9822870394	-0.4282106778	-0.0784846138	 0.07967
H	 0.6833461648	-0.1341522895	-2.079046622	 0.248476
H	 2.2415102724	-2.3112870359	 1.1416560349	 0.107061
H	 2.4546710769	-0.2427105585	 2.2584445114	 0.231798
H	-0.4594528812	-0.031865755	 2.9014131307	 0.131426
H	-0.8967621087	-1.5915098357	 2.1880904652	 0.13178
H	 0.5690605241	-1.4471511985	 3.1702802535	 0.121853
105.1419	147.3681	203.3382	239.174	247.4496	288.0294	335.7354	405.2928	475.51	496.2241	524.0207	567.7648	665.4589	708.0285	765.6558	853.7614	868.1933	892.4116	963.6425	977.4227	1020.3886	1022.4682	1064.1767	1102.9882	1134.0595	1136.0101	1151.472	1248.4388	1285.9711	1335.2003	1347.6293	1383.5233	1402.8201	1412.3724	1434.3571	1445.2948	1483.7367	1493.8558	1500.8798	1502.0213	1833.5928	2981.7145	3027.2871	3038.6887	3090.3849	3101.3678	3102.9542	3138.2108	3196.5188	3476.8608	3644.148
CC1NC(=O)C2NC12C	C[C@H]1NC(=O)[C@H]2N[C@@]12C	
InChI=1S/C6H10N2O/c1-3-6(2)4(8-6)5(9)7-3/h3-4,8H,1-2H3,(H,7,9)	InChI=1S/C6H10N2O/c1-3-6(2)4(8-6)5(9)7-3/h3-4,8H,1-2H3,(H,7,9)/t3-,4-,6+/m1/s1
