19
gdb 106794	2.58759	1.58436	1.19664	2.0254	76.58	-0.2306	0.0143	0.2449	1093.5583	0.157948	-423.003393	-422.994665	-422.993721	-423.036419	33.586	
C	 0.236716117	 1.1592162001	 0.3691733099	-0.252973
O	-0.2085519053	-0.0722648353	-0.1741884773	-0.302718
C	 0.5135556139	-0.5214889356	-1.275958502	 0.316412
C	 1.9277892818	-1.0612768778	-1.0804369383	-0.394283
C	 0.7770398398	-2.0067319939	-1.3616982566	 0.365869
O	 0.3437071619	-2.8541523118	-0.3466157542	-0.483133
C	 0.5207396708	-2.4372972508	-2.8025775362	-0.329852
C	 0.1873585512	-1.1334706599	-3.5018545369	-0.07871
C	 0.156436784	-0.0942951978	-2.6631067522	-0.143931
H	 1.2919256448	 1.1090791763	 0.6684985754	 0.116076
H	 0.1147265348	 1.9834215528	-0.3466750168	 0.114583
H	-0.3794324589	 1.3610416561	 1.2482903491	 0.128548
H	 2.6786060127	-0.8538224921	-1.8363306623	 0.109743
H	 2.2877304927	-1.1015069124	-0.0570728362	 0.114799
H	-0.2010418634	-2.3175514868	 0.2448067287	 0.290365
H	 1.3872916435	-2.9376347128	-3.2514938791	 0.114103
H	-0.3134974369	-3.1487521546	-2.8416981817	 0.119943
H	 0.0252344977	-1.0764848884	-4.5723026294	 0.09823
H	-0.0618278219	 0.9330924947	-2.9312101139	 0.096928
92.3348	152.5094	171.2888	210.8163	270.3315	293.1446	327.692	400.0403	459.3449	475.1465	513.7622	600.81	693.0403	729.7247	772.8065	822.8918	912.081	927.19	936.2603	944.5679	961.1503	1003.8914	1041.1465	1053.8352	1106.1236	1147.2904	1173.4821	1181.665	1214.8145	1216.8967	1255.4627	1299.0824	1356.2725	1375.5529	1410.0835	1457.2597	1474.7742	1482.5045	1489.2385	1507.0493	1660.9918	2999.9228	3029.8911	3056.2228	3062.7837	3119.1148	3122.0669	3186.2326	3210.2656	3216.1746	3753.9319
COC12CC1(O)CC=C2	CO[C@@]12C[C@]1(O)CC=C2	
InChI=1S/C7H10O2/c1-9-7-4-2-3-6(7,8)5-7/h2,4,8H,3,5H2,1H3	InChI=1S/C7H10O2/c1-9-7-4-2-3-6(7,8)5-7/h2,4,8H,3,5H2,1H3/t6-,7+/m1/s1
