18
gdb 36306	3.38449	1.19571	1.12699	1.2036	77.27	-0.2281	0.0472	0.2754	1145.5402	0.147659	-401.876032	-401.867871	-401.866927	-401.909203	30.984	
C	 0.0743413642	-1.0821872465	-0.1294201584	-0.452284
C	 0.0344991374	 0.0673143966	 0.217996656	 0.326372
C	-0.0303696379	 1.4700772108	 0.6171307708	-0.324058
N	 1.2376713543	 2.1528092926	 0.3215269816	-0.095453
C	 1.568201433	 2.6126738397	-1.0185547108	-0.043082
C	 0.4537607642	 2.8102163715	-2.0291392833	-0.112111
O	-0.550858664	 3.5852748412	-1.3740068356	-0.253666
C	 0.0476776491	 4.3390194091	-0.3226216446	-0.109822
C	 1.3028135037	 3.5887242914	 0.0822343196	-0.053448
H	 0.1099859397	-2.1010786453	-0.4259077594	 0.197007
H	-0.9036245366	 1.9361301921	 0.1406130446	 0.148314
H	-0.1796620704	 1.5333416599	 1.7020540924	 0.133114
H	 2.5617589631	 2.3666772706	-1.3820968973	 0.09947
H	 0.8508581807	 3.3320584473	-2.9143552173	 0.099891
H	-0.0173705528	 1.8789399223	-2.3611264749	 0.126185
H	 0.3244503761	 5.352034044	-0.6565079578	 0.101244
H	-0.698758369	 4.437646447	 0.4739492523	 0.113734
H	 2.0820111551	 4.1303002857	 0.6116103621	 0.098593
48.7516	120.389	224.5091	231.5482	243.5376	342.1146	404.1739	476.0093	517.4786	607.0276	657.3559	708.5531	758.2375	798.0295	831.447	893.4345	921.5771	956.8042	991.2297	1012.6714	1017.7747	1040.6407	1050.3109	1112.9225	1125.2104	1139.5254	1223.2366	1241.9627	1265.5661	1300.6158	1312.4742	1350.1386	1364.0139	1373.9994	1434.712	1493.4244	1509.9941	1520.54	2241.6289	2976.4075	2983.2168	3010.0263	3047.159	3056.8774	3070.5319	3144.6724	3155.4261	3507.0165
C#CCN1C2COCC12	C#CCN1[C@H]2COC[C@@H]12	
InChI=1S/C7H9NO/c1-2-3-8-6-4-9-5-7(6)8/h1,6-7H,3-5H2	InChI=1S/C7H9NO/c1-2-3-8-6-4-9-5-7(6)8/h1,6-7H,3-5H2/t6-,7+,8?
