20
gdb 117291	4.61306	0.67329	0.59618	5.64	78.62	-0.2409	-0.0175	0.2233	1893.024	0.167839	-440.357021	-440.346067	-440.345122	-440.395109	37.121	
C	 0.0211002713	 1.6413850862	-0.1870362758	-0.389432
C	 0.0046448848	 0.122364894	-0.0026013922	-0.155909
C	 0.6330343175	-0.6183953944	-1.1829385446	-0.322688
C	 0.620203521	-2.1364331904	-1.0045712077	 0.42888
O	 0.1652948306	-2.6915150651	-0.0384442907	-0.301309
N	 1.1981939449	-2.8092384162	-2.0935005136	-0.386731
C	 1.3583432855	-4.1923872843	-2.274451595	 0.412498
C	 2.0379305402	-4.5312453113	-3.5945199871	-0.501658
O	 1.0004556169	-5.0203723454	-1.4786629968	-0.293717
H	 1.0438288699	 2.0214107907	-0.2910717322	 0.112589
H	-0.535110396	 1.9424784734	-1.0821264889	 0.112588
H	-0.4338167163	 2.1455178053	 0.6706705677	 0.119521
H	 0.5362584348	-0.1554832864	 0.9131267263	 0.119175
H	-1.0218125176	-0.2333259592	 0.1325401286	 0.119125
H	 0.1075698883	-0.37265761	-2.1168921864	 0.118989
H	 1.6727338315	-0.2938630171	-1.3329467448	 0.119012
H	 1.542405092	-2.2230098652	-2.8391785708	 0.249054
H	 3.0341154115	-4.0789470413	-3.6491246647	 0.140861
H	 2.1292168469	-5.6139572357	-3.6697484296	 0.158355
H	 1.4542119224	-4.1570607578	-4.4425843317	 0.140797
38.2707	48.9428	74.7018	91.0006	107.7566	122.2064	223.8892	242.3073	297.884	360.7576	399.3436	551.7578	552.9345	568.9254	641.7823	731.087	750.0528	871.6168	888.1941	910.4898	947.4944	1027.8479	1050.1511	1052.6564	1113.0047	1116.9276	1158.664	1221.0749	1249.9138	1318.075	1325.848	1382.5891	1392.9817	1415.1416	1460.2042	1467.4697	1482.431	1487.8141	1500.451	1504.1125	1508.5896	1810.9367	1865.3978	3006.1437	3028.3976	3036.6481	3039.5324	3056.1298	3078.4521	3102.0813	3104.0236	3106.2472	3166.7978	3614.6627
CCCC(=O)NC(C)=O	CCCC(=O)NC(=O)C	
InChI=1S/C6H11NO2/c1-3-4-6(9)7-5(2)8/h3-4H2,1-2H3,(H,7,8,9)	InChI=1S/C6H11NO2/c1-3-4-6(9)7-5(2)8/h3-4H2,1-2H3,(H,7,8,9)
