17
gdb 35027	3.39504	1.47787	1.43746	1.5482	77.91	-0.2402	-0.0022	0.238	969.109	0.1373	-384.648678	-384.641597	-384.640653	-384.679855	28.994	
C	-0.0382137307	-1.2178517119	-0.0871878444	-0.439614
C	-0.0015232604	-0.0176859393	-0.0214262769	 0.325758
C	 0.0164046683	 1.4312565743	 0.0476761698	-0.20356
C	-0.2893321022	 2.0736735013	 1.4476963161	-0.110476
C	 0.9523526181	 1.5441904135	 2.2251308032	-0.07352
O	 2.0104311402	 1.587723559	 1.259820379	-0.272474
C	 1.4194937545	 2.0982277148	 0.0380720686	 0.060826
C	 1.0427297437	 3.5496593701	 0.2836135643	-0.0891
C	 0.0144128079	 3.5271807455	 1.1394507753	-0.088667
H	-0.0592158428	-2.2778265538	-0.1471355715	 0.193986
H	-0.6338169905	 1.8619532017	-0.7169974826	 0.108721
H	-1.2505564451	 1.8401293677	 1.9022104799	 0.080614
H	 1.1990189492	 2.1730063611	 3.087479203	 0.099522
H	 0.8079347927	 0.5094760482	 2.5552478432	 0.114006
H	 2.091260132	 1.8663619935	-0.7855900777	 0.085151
H	 1.5939600227	 4.4071049468	-0.0788450624	 0.105249
H	-0.4635933176	 4.3678512874	 1.6261519631	 0.103578
141.5628	149.1372	302.2043	377.5091	393.0383	456.606	522.0728	551.0676	633.2803	637.4318	691.6999	746.6169	804.6156	823.1939	867.2942	891.7393	903.6223	930.348	952.942	969.0307	1006.5505	1008.1846	1050.3341	1060.0547	1124.5553	1153.4454	1202.2222	1232.5247	1260.6663	1269.3374	1295.3239	1343.4595	1349.6284	1366.3165	1513.063	1634.8006	2233.9195	3031.0387	3075.8245	3087.4536	3135.9379	3150.0886	3203.9494	3230.1604	3503.7967
C#CC1C2COC1C=C2	C#C[C@H]1[C@H]2CO[C@@H]1C=C2	
InChI=1S/C8H8O/c1-2-7-6-3-4-8(7)9-5-6/h1,3-4,6-8H,5H2	InChI=1S/C8H8O/c1-2-7-6-3-4-8(7)9-5-6/h1,3-4,6-8H,5H2/t6-,7+,8-/m1/s1
