15
gdb 77270	2.23747	1.33657	1.04824	5.2738	67.45	-0.2554	-0.0193	0.2361	1157.0378	0.111447	-453.946834	-453.937815	-453.936871	-453.981373	31.371	
N	 0.1013160193	 1.4565129997	 0.1042656154	-0.507516
C	 0.0795317149	 0.0403259905	-0.0026321695	-0.020438
C	-1.1946983528	-0.6874494767	 0.2410696906	 0.078137
O	-2.3068324043	 0.1239221929	 0.4997807367	-0.195148
C	-3.5281959535	-0.3525376653	 0.1184895013	 0.184915
O	-4.5323996289	 0.233902887	 0.3637790792	-0.248554
C	-0.6110715934	-0.7273402253	-1.1750467615	-0.273371
C	-1.2307698465	 0.0334857435	-2.2126918938	 0.298461
N	-1.7226161822	 0.6667020038	-3.0477213095	-0.330951
H	 0.6607574765	 1.8848050455	-0.6246701928	 0.25127
H	-0.8328639764	 1.8481702251	 0.0695789619	 0.264525
H	 0.9811829409	-0.4506827478	 0.3527714263	 0.126015
H	-1.1785973608	-1.6150249315	 0.8061058762	 0.133038
H	-3.4599608661	-1.3150413937	-0.4186504028	 0.099614
H	-0.1695292067	-1.6670920577	-1.4899305577	 0.140003
58.0272	115.9564	119.612	142.6306	182.8034	240.4541	291.2307	377.4073	402.8785	531.86	609.1557	659.9192	704.4711	719.4499	786.63	837.321	948.0106	970.929	1021.132	1042.1991	1109.044	1113.9491	1134.2549	1184.7245	1252.039	1284.6507	1353.6198	1371.8477	1419.4268	1456.0181	1655.2602	1885.1421	2348.7308	2989.2554	3144.878	3153.0324	3170.2989	3523.4499	3608.0602
NC1C(OC=O)C1C#N	N[C@H]1[C@@H](OC=O)[C@H]1C#N	
InChI=1S/C5H6N2O2/c6-1-3-4(7)5(3)9-2-8/h2-5H,7H2	InChI=1S/C5H6N2O2/c6-1-3-4(7)5(3)9-2-8/h2-5H,7H2/t3-,4+,5-/m0/s1
