16
gdb 64544	3.8825	1.08587	1.06801	1.2913	71.57	-0.2565	-0.0544	0.2021	1151.085	0.121927	-437.863009	-437.854644	-437.853699	-437.896208	30.705	
C	-0.0497057765	 1.5980618174	-0.0265333185	-0.493758
C	 0.0524758417	 0.0883923098	-0.0432863906	 0.191372
C	-1.073648999	-0.6199299558	 0.6710835229	 0.144584
O	-2.0711310777	-0.0720411921	 1.0591668611	-0.25299
C	 0.572878019	-0.730298659	-1.1991433795	-0.206097
N	 1.2950084778	-0.6931303844	 0.1389654659	-0.159993
C	 2.4153716697	 0.1028212152	-0.4808486972	-0.294124
C	 1.7237253553	-0.0075327388	-1.8538462424	 0.408854
O	 2.0483303983	 0.1928608915	-2.9854847784	-0.293062
H	 0.6026096377	 2.0860951296	-0.7507683154	 0.137303
H	-1.0820660269	 1.8755681818	-0.250310323	 0.158253
H	 0.1794576818	 1.9818794607	 0.9727226863	 0.141332
H	-0.8953374196	-1.707030738	 0.8124071514	 0.097216
H	 0.0547554624	-1.6046980868	-1.5801865163	 0.127764
H	 2.5955051505	 1.084659781	-0.0397249275	 0.140659
H	 3.3382358956	-0.4834012321	-0.4631490289	 0.152686
85.8734	114.1941	133.2655	232.7172	255.2172	327.2598	384.3551	404.0146	477.0241	525.466	595.0879	650.9205	733.3607	805.1869	834.8176	892.8581	971.0429	996.7779	1007.5478	1025.5153	1029.9382	1085.6323	1109.8823	1134.2049	1191.5054	1248.7567	1293.656	1338.7227	1408.2915	1426.157	1462.7312	1486.923	1495.2971	1832.0573	1899.0861	2915.9253	3055.1174	3073.4555	3124.6367	3133.0735	3151.1123	3171.0042
CC1(C=O)C2N1CC2=O	C[C@@]1(C=O)[C@@H]2N1CC2=O	
InChI=1S/C6H7NO2/c1-6(3-8)5-4(9)2-7(5)6/h3,5H,2H2,1H3	InChI=1S/C6H7NO2/c1-6(3-8)5-4(9)2-7(5)6/h3,5H,2H2,1H3/t5-,6-,7?/m1/s1
