17
gdb 125938	3.7903	1.34814	1.14202	4.1184	74.29	-0.2069	-0.0021	0.2049	1079.3864	0.138447	-417.996937	-417.989682	-417.988738	-418.028648	28.681	
C	 0.204520268	 1.4826757064	 0.0803994417	-0.395931
C	-0.061051974	-0.0197316405	-0.0463542676	 0.028134
C	 0.6640913751	-0.6416221727	-1.2901746754	-0.355648
C	 1.891559217	-1.2236197698	-0.6564091252	 0.383642
N	 3.033071102	-1.707173295	-1.0567734283	-0.24713
O	 3.6782783248	-2.089678862	 0.1202676777	-0.186043
C	 2.87844034	-1.8185320317	 1.1969215704	-0.071448
C	 1.727457971	-1.2624949722	 0.7497777196	 0.169081
N	 0.4709745512	-0.7843716113	 1.1260600321	-0.424053
H	 1.2802099226	 1.6867866238	 0.1144370998	 0.132699
H	-0.220536891	 2.0252157136	-0.7703788631	 0.123865
H	-0.2507888111	 1.885915322	 0.9916205303	 0.115298
H	-1.1398021936	-0.1912098867	-0.1103507174	 0.089022
H	 0.0545029432	-1.4289638758	-1.7462658013	 0.134651
H	 0.868964444	 0.1074012152	-2.0586150327	 0.130813
H	 3.2931529162	-2.0721658351	 2.1578592116	 0.138994
H	 0.4255497347	-0.2726591284	 1.9975027876	 0.234052
80.6491	219.7545	266.9522	311.7346	347.2096	392.9839	477.5504	577.0503	601.8525	653.5712	699.1148	732.9788	755.3649	814.3979	848.6199	908.4705	911.9729	945.8537	960.66	1041.2373	1081.0401	1093.142	1126.204	1163.576	1209.6488	1268.6285	1279.4679	1329.4509	1366.7477	1391.1633	1408.1912	1465.021	1478.6411	1494.4791	1497.6219	1573.6712	1697.517	3028.4416	3047.2404	3060.2778	3097.4567	3106.1729	3107.9484	3281.5728	3569.8125
CC1CC2=NOC=C2N1	C[C@H]1Cc2nocc2N1	
InChI=1S/C6H8N2O/c1-4-2-5-6(7-4)3-9-8-5/h3-4,7H,2H2,1H3	InChI=1S/C6H8N2O/c1-4-2-5-6(7-4)3-9-8-5/h3-4,7H,2H2,1H3/t4-/m0/s1
