13
gdb 28760	4.22187	1.0098	0.94995	3.2427	61.95	-0.2338	0.0043	0.2382	1202.8981	0.089979	-489.93388	-489.926159	-489.925215	-489.967752	27.388	
O	 0.175307222	 1.2556102209	 0.5973626498	-0.395398
C	 0.1514173241	-0.0202226274	 0.2285054874	 0.49323
N	 0.99786902	-0.6545538858	-0.5197562609	-0.380545
C	 0.4801444237	-1.9460089522	-0.5539450423	-0.135329
C	-0.6497578456	-2.010473587	 0.1807161974	 0.366584
N	-1.572285313	-3.0000797753	 0.4764573367	-0.424318
C	-2.6519416081	-3.305969175	-0.3318512053	 0.13448
O	-2.8948742449	-2.7928458424	-1.3920843046	-0.277562
O	-0.8746919859	-0.7310053093	 0.7021099368	-0.1861
H	 0.9548687646	 1.6494462479	 0.1839360386	 0.324866
H	 0.9565356434	-2.7378996778	-1.109187942	 0.136317
H	-1.5213682466	-3.4682794956	 1.3706805601	 0.260552
H	-3.2674992538	-4.107028321	 0.1230948383	 0.083221
21.1891	102.7831	189.2515	245.0989	358.6356	381.5003	449.1608	496.1219	536.7763	605.1095	625.3194	751.599	756.1827	862.6473	897.1675	972.1363	1021.7113	1036.8088	1108.5646	1146.7988	1223.823	1232.2948	1296.2409	1431.5581	1481.0671	1504.1161	1645.2278	1684.328	1840.3326	2943.0689	3270.8172	3578.2147	3800.739
OC1=NC=C(NC=O)O1	Oc1ncc(NC=O)o1	
InChI=1S/C4H4N2O3/c7-2-6-3-1-5-4(8)9-3/h1-2H,(H,5,8)(H,6,7)	InChI=1S/C4H4N2O3/c7-2-6-3-1-5-4(8)9-3/h1-2H,(H,5,8)(H,6,7)
