16
gdb 124248	2.75283	1.51565	0.98437	2.0608	74.55	-0.2148	-0.0216	0.1932	1141.8615	0.125557	-434.121138	-434.112676	-434.111732	-434.15429	31.347	
C	 0.0403718084	 1.5083086029	 0.0036407609	-0.488422
C	 0.0499131958	-0.0092744116	 0.0289981504	 0.298305
O	 1.1132171635	-0.6291144346	 0.0208231566	-0.375528
C	-1.2228144954	-0.7001120166	 0.0538649907	 0.059718
C	-1.3469916181	-2.1002438101	 0.048618395	 0.367841
N	-0.359113119	-3.0358730432	 0.1258337522	-0.600415
N	-2.6695608338	-2.3593662337	 0.0192511847	-0.274493
N	-3.4455459809	-1.2226748411	 0.0079834961	-0.234951
C	-2.5704930872	-0.2396607221	 0.0315056075	-0.092269
H	 1.067256552	 1.8750330954	-0.0086330819	 0.138722
H	-0.4899994014	 1.8763536871	-0.881384956	 0.138282
H	-0.4801329353	 1.9054420991	 0.8818880863	 0.138736
H	 0.5558085436	-2.6150039451	-0.0112059084	 0.285297
H	-0.5122957436	-3.9269925834	-0.3202695033	 0.253059
H	-3.1253402408	-3.2556463986	 0.0400933469	 0.270605
H	-2.921670878	 0.7824952354	 0.0266138825	 0.115515
86.8486	116.3248	180.1055	191.4553	292.2555	314.3144	370.0237	435.2965	471.8694	500.9502	588.574	636.8348	652.7101	675.6348	741.5594	763.6051	898.4555	937.7788	956.5615	1043.9967	1067.2195	1096.6692	1116.1141	1234.5749	1311.0792	1353.5182	1375.9878	1407.4798	1466.702	1477.0675	1478.9903	1564.4485	1583.4227	1655.0667	1718.9854	3038.5983	3100.2454	3152.5951	3240.0284	3489.5654	3654.9403	3674.4805
CC(=O)C1=C(N)NN=C1	CC(=O)c1c(N)[nH]nc1	
InChI=1S/C5H7N3O/c1-3(9)4-2-7-8-5(4)6/h2H,1H3,(H3,6,7,8)	InChI=1S/C5H7N3O/c1-3(9)4-2-7-8-5(4)6/h2H,1H3,(H3,6,7,8)
