18
gdb 38697	2.61785	2.21978	2.11652	1.0774	68.44	-0.2092	0.0898	0.2991	800.5903	0.153372	-439.087365	-439.081789	-439.080845	-439.116946	24.817	
C	-0.0122564516	 1.4741902735	-0.0004991579	-0.184394
C	 1.4887986819	 1.808827334	 0.0245251154	 0.051605
O	 1.9339461247	 1.5896308647	 1.3703542989	-0.255864
C	 2.0597094712	 0.1789553278	 1.4014875531	 0.174401
C	 0.6605432646	-0.466608882	 1.2500009693	-0.202873
N	-0.0104180353	-0.0085252412	 0.0006650704	-0.109855
C	 0.9112296305	-0.2615883416	-1.1329025043	-0.184394
C	 2.1335176114	 0.5970166481	-0.76605061	 0.051604
O	 2.841449551	-0.1161091427	 0.2575479378	-0.255863
H	-0.5239420936	 1.8788854376	 0.8748031663	 0.114553
H	-0.5146997943	 1.8290103791	-0.907024275	 0.10092
H	 1.7874526057	 2.8083366748	-0.2926772535	 0.084865
H	 2.5989550215	-0.1221119838	 2.3027348279	 0.091564
H	 0.7560225855	-1.5565688015	 1.2187907994	 0.111696
H	 0.032946332	-0.1974799554	 2.1054511367	 0.111697
H	 1.1767087433	-1.3176387178	-1.2105749979	 0.114553
H	 0.4279208967	 0.0572612946	-2.0628928102	 0.10092
H	 2.8267901148	 0.8548051817	-1.5671423664	 0.084865
327.48	376.2834	442.2596	491.4741	504.6846	589.7778	623.5189	760.0657	791.7446	831.6342	849.2626	858.5253	862.3509	872.8933	921.3362	931.6263	974.2951	993.0582	1011.7312	1044.7111	1045.7674	1109.3042	1109.8517	1126.7814	1172.2617	1215.3769	1265.279	1288.7543	1302.9539	1304.6174	1310.5605	1319.9621	1332.9685	1350.4315	1376.7776	1380.201	1470.6164	1480.1284	1501.8686	3041.6278	3045.5051	3049.7449	3098.2142	3098.5197	3108.0258	3118.3815	3118.561	3120.7701
C1C2OC3CN1CC2O3	C1[C@H]2O[C@H]3CN1C[C@@H]2O3	
InChI=1S/C6H9NO2/c1-4-5-2-7(1)3-6(8-4)9-5/h4-6H,1-3H2	InChI=1S/C6H9NO2/c1-4-5-2-7(1)3-6(8-4)9-5/h4-6H,1-3H2/t4-,5+,6-
