16
gdb 13804	3.17394	1.84477	1.28351	4.8609	62.07	-0.2481	0.027	0.2751	934.3344	0.131365	-417.068563	-417.060695	-417.059751	-417.100714	29.41	
N	-0.0193325039	 0.9845217538	-0.1506659071	-0.527069
C	-0.1254066376	-0.3807076777	-0.08428773	 0.424031
O	 0.7528247544	-1.1291848219	-0.4873735325	-0.392714
N	-1.2976512019	-0.8213164115	 0.5293625579	-0.11629
C	-2.6465962787	-0.5450059232	 0.0544574744	-0.273748
C	-2.0941219176	-1.939760759	 0.0493854357	-0.013518
C	-1.7395367015	-2.6284228532	-1.2548946898	-0.072395
O	-0.6402887064	-3.4926589989	-1.1136181035	-0.424762
H	 0.9041157077	 1.3348453471	-0.349392236	 0.268548
H	-0.5959360716	 1.5450488623	 0.4552552013	 0.264605
H	-3.3649156708	-0.2380277813	 0.8099776111	 0.125892
H	-2.7465171887	-0.0452878876	-0.9068811086	 0.132436
H	-2.4019829592	-2.6151276522	 0.8452323315	 0.109993
H	-2.5937332721	-3.2375079465	-1.5734559763	 0.107718
H	-1.5726139663	-1.8659155351	-2.0337882371	 0.085436
H	 0.1056943242	-2.914697345	-0.8783017712	 0.301837
87.8721	173.453	195.728	215.8177	273.8603	382.397	432.7382	459.6991	525.2015	534.0114	616.1062	675.0186	734.5295	783.6791	834.439	930.5878	992.3528	1031.3007	1086.4181	1100.3304	1113.0529	1130.4454	1140.3927	1172.6692	1255.1377	1290.1876	1360.8011	1407.4826	1444.1277	1481.1397	1493.2753	1511.9641	1616.3567	1764.6593	2966.6597	3058.5888	3101.991	3134.1619	3190.4006	3594.9695	3649.3682	3719.1668
NC(=O)N1CC1CO	NC(=O)N1C[C@H]1CO	
InChI=1S/C4H8N2O2/c5-4(8)6-1-3(6)2-7/h3,7H,1-2H2,(H2,5,8)	InChI=1S/C4H8N2O2/c5-4(8)6-1-3(6)2-7/h3,7H,1-2H2,(H2,5,8)/t3-,6?/m0/s1
