15
gdb 37343	3.40772	1.91172	1.84206	2.009	60.88	-0.2487	0.0622	0.3109	788.1014	0.114539	-457.695424	-457.689816	-457.688872	-457.725132	24.015	
O	-0.0211493895	 1.4309430304	 0.0306988569	-0.241284
C	 1.2730366937	 0.8088800413	-0.0003518378	 0.03191
C	 0.0522560941	-0.0032509003	 0.0073266914	 0.031912
C	 0.067755937	-0.6589949656	-1.404766756	-0.041982
O	 1.4788890843	-0.8394057936	-1.6085828588	-0.237374
C	 1.8595247437	 0.5329749336	-1.4160370051	-0.041983
C	 0.9576522527	 1.2553634895	-2.4342225928	 0.054042
O	 0.6135434322	 0.4429511364	-3.5568889694	-0.246045
C	-0.2588997254	 0.446060234	-2.4265661887	 0.054041
H	 1.9083303822	 0.9816992146	 0.8618587992	 0.112956
H	-0.345082522	-0.5173928833	 0.8760334947	 0.112955
H	-0.4477026762	-1.6136279846	-1.4929005924	 0.090549
H	 2.9383769661	 0.6389519712	-1.514201628	 0.090549
H	 0.9758578634	 2.3301999807	-2.5708145657	 0.114878
H	-1.2584403564	 0.8438478856	-2.5567451974	 0.114877
288.3693	288.5875	419.5257	448.8881	586.2687	638.7505	671.7544	762.7528	794.2269	827.5746	869.3353	880.295	883.5264	909.6673	909.9825	944.4029	965.5878	990.0737	1000.1162	1023.1725	1046.6072	1076.5117	1094.0735	1214.4711	1236.4069	1252.0964	1252.5463	1270.875	1275.3281	1309.4401	1324.766	1389.2783	1420.744	3140.7917	3142.6124	3168.8844	3180.746	3182.8149	3194.9575
O1C2C1C1OC2C2OC12	O1[C@H]2[C@@H]1[C@@H]1O[C@H]2[C@H]2O[C@@H]12	
InChI=1S/C6H6O3/c7-1-2(7)6-4-3(8-4)5(1)9-6/h1-6H	InChI=1S/C6H6O3/c7-1-2(7)6-4-3(8-4)5(1)9-6/h1-6H/t1-,2+,3-,4+,5-,6+
