19
gdb 124543	2.48855	1.29908	1.04832	0.5272	77.91	-0.2079	0.025	0.233	1227.7356	0.15925	-419.230993	-419.22151	-419.220566	-419.266522	34.758	
C	-0.0521138832	 1.5618816102	 0.0132863795	-0.37266
C	-0.038077583	 0.0227449615	 0.0130130105	-0.089984
C	 0.7511926961	-0.5273553615	 1.2144271924	-0.3727
C	-1.4350594958	-0.5393655619	-0.0306478761	 0.243844
N	-2.3068630836	-0.3131582886	 0.9561875281	-0.290931
N	-3.4247970946	-0.9521437849	 0.5878098847	-0.187115
C	-3.3160190553	-1.590206571	-0.6084925831	-0.113681
C	-2.0295015342	-1.3403874206	-1.0385052085	 0.170558
O	-1.4954001362	-1.7985618695	-2.2054878815	-0.446216
H	 0.9675331662	 1.9613034966	 0.0201604546	 0.104693
H	-0.5695179268	 1.9541810731	-0.8674407872	 0.112284
H	-0.574605388	 1.9320887639	 0.9000472311	 0.135672
H	 0.4808382628	-0.3037846123	-0.9018368772	 0.047884
H	 0.8052311152	-1.6198704533	 1.1870094851	 0.112326
H	 1.7724067122	-0.1320311588	 1.2242512278	 0.104628
H	 0.2602601902	-0.2406179506	 2.1488311577	 0.135783
H	-4.2277508565	-0.9179810347	 1.1910172777	 0.273417
H	-4.1226285056	-2.1509670453	-1.0498150505	 0.134893
H	-0.5876799398	-1.4857003822	-2.2693037151	 0.297305
11.9023	139.5146	176.1156	191.1961	227.3817	253.6666	283.0315	299.9461	394.9034	420.6735	475.3628	535.8635	617.7537	658.6976	733.0228	733.141	769.9485	891.4615	927.623	946.41	963.9704	1066.7746	1088.2043	1121.1729	1126.9413	1185.7261	1227.5521	1254.9131	1325.1241	1331.1984	1367.9681	1394.6238	1414.3329	1433.9482	1479.7392	1484.415	1491.0166	1499.1497	1509.5199	1534.6286	1640.3513	2972.1127	3032.6306	3036.775	3102.0869	3105.7293	3115.8719	3119.7298	3277.1749	3683.8953	3827.7547
CC(C)C1=NNC=C1O	CC(C)c1n[nH]cc1O	
InChI=1S/C6H10N2O/c1-4(2)6-5(9)3-7-8-6/h3-4,9H,1-2H3,(H,7,8)	InChI=1S/C6H10N2O/c1-4(2)6-5(9)3-7-8-6/h3-4,9H,1-2H3,(H,7,8)
