21
gdb 38353	2.20281	2.01065	1.32421	1.1835	83.12	-0.2338	0.0114	0.2452	1037.4067	0.185602	-387.06975	-387.0622	-387.061256	-387.10139	30.932	
C	 0.1186216407	 1.5668459707	 0.3311497265	-0.233377
C	 1.6497522489	 1.4207944056	 0.0864585373	 0.003241
C	 1.493614958	-0.1206376745	 0.1982132263	-0.247475
C	-0.0561433663	 0.0241941089	 0.0812398484	-0.031978
C	-0.6683186328	-0.3905534128	-1.2281245261	-0.061144
C	-0.2139272219	-0.1950360624	-2.4693525807	-0.063357
C	 1.0176740412	 0.5621627783	-2.9193883713	-0.128603
O	 1.1806773402	 1.8399482489	-2.3204943444	-0.238547
C	 2.1180035982	 1.9570726115	-1.2676588777	-0.096799
H	-0.1241913648	 1.8469858365	 1.359092846	 0.092633
H	-0.4137827548	 2.2202518781	-0.360577517	 0.116905
H	 2.2935063074	 1.8638828393	 0.8533010035	 0.06466
H	 1.9892151298	-0.7347275712	-0.5584247408	 0.096853
H	 1.7888476529	-0.4932345413	 1.1823386546	 0.096693
H	-0.5983376195	-0.4793250306	 0.8848387007	 0.06642
H	-1.6098105844	-0.9300362189	-1.1398669992	 0.08464
H	-0.8048201808	-0.605542862	-3.2857771504	 0.085009
H	 1.9301113887	-0.0396669057	-2.7803147631	 0.100007
H	 0.9282893295	 0.7447570555	-3.9969983924	 0.105142
H	 2.3043008146	 3.0339775639	-1.1821155467	 0.103477
H	 3.0715365553	 1.4766922022	-1.5475114334	 0.0856
126.7674	200.9268	256.2629	261.253	310.9917	404.4322	424.6844	523.698	559.3	695.495	717.6682	738.2374	779.4189	789.1066	861.4374	877.3342	908.6186	950.3143	963.5874	999.9748	1022.6104	1049.1074	1059.8234	1084.8199	1092.8603	1134.8072	1149.1828	1184.3978	1205.5286	1255.3786	1263.6543	1271.9596	1286.9042	1295.9534	1339.5936	1353.9874	1377.5235	1403.5263	1416.5148	1429.4798	1465.4545	1480.6922	1487.4112	1499.2864	1716.2265	2958.6243	2975.0356	3042.3843	3042.5589	3055.7318	3059.1396	3063.1609	3074.4515	3106.8327	3126.7508	3136.5563	3152.4565
C1C2CC1C=CCOC2	C1[C@H]2C[C@@H]1C=CCOC2	
InChI=1S/C8H12O/c1-2-7-4-8(5-7)6-9-3-1/h1-2,7-8H,3-6H2/b2-1-	InChI=1S/C8H12O/c1-2-7-4-8(5-7)6-9-3-1/h1-2,7-8H,3-6H2/b2-1-/t7-,8+
