14
gdb 22032	3.85123	1.09798	0.85439	3.4871	72.66	-0.1785	-0.0084	0.1701	1221.204	0.100919	-477.959348	-477.95149	-477.950546	-477.991673	29.654	
O	-0.1076378694	 1.3565729588	 0.1245476157	-0.41303
N	 0.0556353156	-0.0511720855	 0.0897044962	-0.275078
C	-1.0902163309	-0.6391966441	-0.0466681095	 0.37889
C	-2.3913069614	 0.0166651561	-0.1533558927	-0.214098
C	-3.5187196479	-0.7060913351	-0.2927889238	 0.01233
N	-3.4902096048	-2.0860297203	-0.3401520721	-0.403622
C	-2.2840532753	-2.732247691	-0.2426194624	 0.412106
F	-2.4021112701	-4.0540608608	-0.3025559919	-0.067284
C	-1.1137946938	-2.0934563444	-0.1019443809	-0.388666
H	 0.8012603524	 1.6538038334	 0.2265635355	 0.300046
H	-2.4380626537	 1.0942852725	-0.118831943	 0.129072
H	-4.5028280736	-0.2627644666	-0.3754092142	 0.13556
H	-4.3271547798	-2.6335224114	-0.4440146836	 0.270772
H	-0.1926379171	-2.6544987114	-0.0299242033	 0.123001
123.3669	162.5041	232.8499	257.1285	300.316	375.0685	385.2001	429.6726	458.2704	520.6292	619.0119	648.0944	698.5818	774.5752	810.6943	855.1415	915.2854	945.366	965.4804	1015.0234	1098.209	1205.4536	1231.7758	1279.2786	1339.9182	1411.8075	1433.6146	1519.3486	1647.2936	1669.9366	1748.2542	3215.8645	3235.4449	3258.4431	3675.2921	3836.1037
ON=C1C=CNC(F)=C1	ON=c1cc[nH]c(F)c1	
InChI=1S/C5H5FN2O/c6-5-3-4(8-9)1-2-7-5/h1-3,9H,(H,7,8)	InChI=1S/C5H5FN2O/c6-5-3-4(8-9)1-2-7-5/h1-3,9H,(H,7,8)
