14
gdb 69028	2.74053	1.37692	1.18154	2.749	70.83	-0.2628	-0.0497	0.2131	1046.7911	0.100084	-436.686433	-436.678472	-436.677528	-436.719245	29.443	
O	 0.1191744702	 1.370990528	-0.2335392093	-0.41711
C	 0.0573940103	 0.0318621353	-0.06791352	 0.29267
C	-0.345238456	-0.847262086	-1.20460229	-0.359192
C	-1.1961697064	-1.0352566834	 0.0215867332	 0.087486
C	-0.4190624394	-1.8667921512	 1.0505415944	-0.402617
C	 0.6155571059	-0.7146520712	 1.0985819933	 0.338413
O	 1.3664029584	-0.3357799339	 1.9558662423	-0.319474
C	-2.5755244091	-0.7211235227	 0.0884875834	 0.207262
N	-3.7012354026	-0.4551150287	 0.1582240675	-0.336253
H	 0.2520939656	 1.7767436386	 0.6343646601	 0.315146
H	-0.8104097814	-0.2854038939	-2.0090809795	 0.164101
H	 0.2874349958	-1.6674751781	-1.5361505769	 0.137731
H	-0.9157970112	-1.980280157	 2.0158920735	 0.157344
H	-0.06872541	-2.8400575058	 0.696844988	 0.134494
73.2746	112.0357	178.2604	254.9368	346.2625	380.4676	430.8304	476.534	532.069	571.7654	588.9714	602.2266	652.6484	712.6341	763.7699	906.0901	969.4863	990.7871	1024.4526	1094.4556	1128.3198	1139.0774	1191.618	1214.4688	1333.9413	1392.0113	1428.3626	1465.2556	1502.7864	1855.9092	2337.5809	3067.0138	3109.2959	3134.5837	3206.5863	3762.8315
OC12CC1(CC2=O)C#N	O[C@]12C[C@]1(CC2=O)C#N	
InChI=1S/C6H5NO2/c7-3-5-1-4(8)6(5,9)2-5/h9H,1-2H2	InChI=1S/C6H5NO2/c7-3-5-1-4(8)6(5,9)2-5/h9H,1-2H2/t5-,6+/m1/s1
