23
gdb 96138	2.42191	1.66548	1.2478	1.162	84.59	-0.2453	0.0801	0.3254	1118.5966	0.208583	-388.288162	-388.280097	-388.279153	-388.320152	33.143	
C	 0.0338809707	 1.5515066086	-0.0403187253	-0.405807
C	 0.0075656246	 0.0175966015	 0.0116902262	 0.006731
C	 0.570938105	-0.5397493951	-1.3111769376	-0.073894
O	 0.6952700566	-1.9489456195	-1.3520383212	-0.246181
C	 1.870462648	-2.4683792111	-0.7536509875	-0.092793
C	 2.0125104337	-2.1782804775	 0.7454564635	-0.009531
C	 0.6333840365	-2.0563493659	 1.4526817872	-0.240725
C	 0.7254658884	-0.5122791909	 1.2666827091	 0.015058
C	 2.2638588413	-0.6851964784	 1.101170768	-0.242656
H	 1.0629679507	 1.9298325753	-0.0456081957	 0.116415
H	-0.4622995631	 1.9311382946	-0.9402917704	 0.111531
H	-0.4738385526	 1.9834602985	 0.8274925926	 0.114808
H	-1.0401856188	-0.307536735	 0.0789218323	 0.076032
H	-0.1130239995	-0.2731915629	-2.1248393036	 0.101688
H	 1.5402980095	-0.0659959747	-1.5394853456	 0.083862
H	 1.8084289312	-3.5502243471	-0.9130294349	 0.104568
H	 2.7633285201	-2.101110717	-1.2892038555	 0.084384
H	 2.7276785751	-2.8922157729	 1.1663428417	 0.062087
H	-0.2116107056	-2.5668882095	 0.9853815962	 0.103714
H	 0.6906879018	-2.3386260144	 2.5073128025	 0.08983
H	 0.4053781952	 0.080310049	 2.1294545244	 0.056958
H	 2.7834139564	-0.5875398652	 2.0583513652	 0.094631
H	 2.7832817348	-0.0622444806	 0.3662538185	 0.089288
136.5888	206.3313	246.5301	288.8125	293.9825	324.6545	355.2612	402.7714	476.1823	506.6408	596.0019	756.9613	780.5333	801.679	859.3105	897.8627	906.5643	938.2015	945.0023	951.1846	981.7573	1027.8894	1048.4179	1066.9137	1093.6756	1111.8195	1129.8444	1144.8613	1172.4845	1194.806	1201.7659	1254.2187	1263.6706	1279.9678	1297.6202	1324.7726	1331.66	1350.6497	1356.1703	1378.5535	1401.2548	1408.5207	1426.3518	1466.3301	1487.2855	1492.4446	1496.7826	1499.2727	1507.7688	2954.7234	2966.5121	3006.5575	3025.8811	3040.906	3048.3277	3049.8815	3059.2953	3062.8165	3070.6075	3089.729	3095.8812	3101.8919	3115.7541
CC1COCC2CC1C2	C[C@H]1COC[C@@H]2C[C@H]1C2	
InChI=1S/C8H14O/c1-6-4-9-5-7-2-8(6)3-7/h6-8H,2-5H2,1H3	InChI=1S/C8H14O/c1-6-4-9-5-7-2-8(6)3-7/h6-8H,2-5H2,1H3/t6-,7-,8+/m0/s1
