18
gdb 55045	4.13725	0.876	0.81168	2.1597	80.99	-0.2343	-0.0311	0.2032	1447.2033	0.144226	-401.896611	-401.886902	-401.885958	-401.931931	34.85	
C	 0.0474956101	 1.501462128	 0.3945591456	-0.48711
C	 0.1024822581	 0.0551713735	-0.0565152818	 0.389964
O	 1.079768415	-0.408289997	-0.6094005726	-0.322008
C	-1.1281572092	-0.7565236955	 0.2297978236	-0.111364
C	-1.4580688231	-1.8992195025	-0.6912002447	-0.227916
N	-1.076050991	-2.1658137256	 0.6719836015	-0.083491
C	 0.2264917074	-2.8100183484	 0.9151466139	-0.333392
C	 0.0885237869	-4.2595876747	 0.8279298798	 0.326089
C	-0.0118468809	-5.4535348495	 0.7419571682	-0.439037
H	 0.9609015926	 2.0178631174	 0.0989034174	 0.145093
H	-0.8234349457	 2.0044372251	-0.0414477859	 0.143541
H	-0.0718744815	 1.5523539013	 1.4832250582	 0.146901
H	-1.9431389099	-0.2038936823	 0.6907323117	 0.096579
H	-2.4973872967	-2.0887094219	-0.9454775425	 0.124276
H	-0.7309970839	-2.0920505889	-1.4778286918	 0.139628
H	 1.0062002189	-2.4667853695	 0.2235108363	 0.162845
H	 0.5447695805	-2.5302555184	 1.9269303209	 0.132271
H	-0.0980488477	-6.5094008112	 0.6710996823	 0.19713
46.8447	67.1006	122.0132	142.1233	202.286	235.435	317.7539	339.6016	384.3884	391.2527	504.7446	593.2301	605.2776	644.8666	661.9978	768.3367	792.4638	887.5505	955.773	965.3506	1003.611	1017.099	1026.1855	1051.8023	1115.2361	1125.6105	1155.4323	1193.1884	1273.3843	1322.0567	1371.8794	1376.1077	1399.2164	1461.7615	1473.4053	1483.6671	1500.5695	1784.5151	2243.6425	3022.2088	3033.5639	3058.5997	3092.5913	3100.2515	3136.2689	3156.9019	3193.7865	3507.0689
CC(=O)C1CN1CC#C	CC(=O)[C@H]1CN1CC#C	
InChI=1S/C7H9NO/c1-3-4-8-5-7(8)6(2)9/h1,7H,4-5H2,2H3	InChI=1S/C7H9NO/c1-3-4-8-5-7(8)6(2)9/h1,7H,4-5H2,2H3/t7-,8?/m1/s1
