23
gdb 92594	2.01983	1.65965	1.49085	1.4867	84.33	-0.2473	0.0805	0.3279	1099.2213	0.206883	-388.296872	-388.288119	-388.287175	-388.329928	34.694	
C	 0.3015852545	 1.5787920408	-0.1465314028	-0.421241
C	 0.0630971639	 0.0871770038	 0.0485444382	 0.000688
C	 0.7197146965	-0.8704085515	-0.9871359531	-0.244638
C	 1.4044243161	-1.6669489475	 0.1549000638	-0.067248
C	 2.9148324623	-1.4674399226	 0.2709025659	-0.097916
O	 3.0804595403	-0.1405288194	 0.7641166556	-0.254359
C	 2.0689276654	 0.0332839281	 1.7494064263	-0.139557
C	 0.8080101803	-0.6642587256	 1.2127809802	 0.321352
C	-0.0878637831	-1.211951569	 2.3141354518	-0.486344
H	 1.3680023795	 1.7959814478	-0.2641184906	 0.13378
H	-0.2109078466	 1.9325106016	-1.0482363454	 0.110314
H	-0.0763991077	 2.1666397677	 0.6980089039	 0.108551
H	-1.0137561852	-0.0970494874	 0.1276670475	 0.062674
H	 0.0218514884	-1.4429965048	-1.6026511585	 0.093606
H	 1.4328492252	-0.3707356634	-1.6503614734	 0.099457
H	 1.1022253752	-2.7120093849	 0.2499405577	 0.063429
H	 3.3526596726	-2.1963164948	 0.9736762199	 0.083122
H	 3.4495236614	-1.5383755831	-0.6810529378	 0.105194
H	 2.3756668657	-0.4369978436	 2.6995205238	 0.079419
H	 1.9528292749	 1.10618906	 1.9227098254	 0.107059
H	-0.4977709351	-0.4026454428	 2.9312324091	 0.115831
H	-0.9351990239	-1.7665539824	 1.8976903395	 0.114499
H	 0.4614353795	-1.8885449567	 2.9788880128	 0.112328
62.7526	200.4981	215.1764	234.5236	251.5083	293.0048	315.5911	381.2673	409.3078	473.3966	561.7988	595.2071	698.7463	753.3087	815.8008	871.9666	885.8466	903.8026	935.8265	947.9745	986.3221	1001.7594	1017.641	1046.6837	1094.7801	1103.2079	1140.9088	1153.3512	1176.726	1189.2588	1210.3578	1239.9345	1246.5678	1270.1853	1290.3118	1304.8235	1323.1439	1354.2269	1369.71	1401.836	1406.3356	1415.13	1481.6197	1493.1803	1494.1165	1495.2354	1497.9597	1506.0659	1518.921	2954.9732	2963.9515	3018.0706	3023.4768	3037.7088	3049.4543	3079.6278	3081.3998	3084.0633	3085.5985	3092.1781	3094.4412	3101.3677	3107.4069
CC1CC2COCC12C	C[C@H]1C[C@H]2COC[C@@]12C	
InChI=1S/C8H14O/c1-6-3-7-4-9-5-8(6,7)2/h6-7H,3-5H2,1-2H3	InChI=1S/C8H14O/c1-6-3-7-4-9-5-8(6,7)2/h6-7H,3-5H2,1-2H3/t6-,7-,8-/m0/s1
