19
gdb 66591	2.90075	1.86406	1.57417	1.3003	76.74	-0.2316	0.0717	0.3033	920.9278	0.161677	-385.848287	-385.841452	-385.840508	-385.879085	28.912	
O	-0.1281188792	 1.3433292377	 0.087436803	-0.471896
C	 0.0232830147	-0.0277839672	 0.0490630211	 0.40651
C	-0.2204274997	-0.8535807492	-1.2300411523	-0.156944
C	-1.0789457874	-1.0434334398	 0.0104288109	-0.157788
C	 0.0194318716	-2.0723114747	 0.456535876	-0.082188
C	 0.5650736751	-2.1528715441	-1.0066900263	-0.012391
C	 2.0912516404	-1.996918477	-0.9609241886	-0.227096
C	 2.3531706904	-1.1387696984	 0.3198364124	-0.236498
C	 0.9539025797	-0.8991933412	 0.9044331845	-0.083309
H	 0.5375661654	 1.7422826562	-0.4837750999	 0.283867
H	-0.490931812	-0.361866151	-2.1569451655	 0.078651
H	-2.1440942433	-0.9649409268	 0.1663433798	 0.094056
H	-0.1285951682	-2.9533233767	 1.0767537411	 0.065676
H	 0.1975308644	-2.9945819963	-1.5978180998	 0.061146
H	 2.5809698367	-2.9736339426	-0.8828473604	 0.094286
H	 2.4759014453	-1.5218687015	-1.8695263028	 0.092886
H	 2.9923018995	-1.6746110855	 1.0292320284	 0.095818
H	 2.8617785622	-0.1952814296	 0.0936206122	 0.089423
H	 0.9123144246	-0.6510352223	 1.9669522461	 0.065791
156.6962	218.3386	270.4933	358.8774	387.9838	486.6062	600.8523	647.7699	698.5814	735.5899	754.6231	799.3314	831.8456	848.9219	888.6444	891.8362	911.5293	918.4489	943.6312	973.7704	997.6123	1021.632	1054.2694	1063.8629	1106.9252	1128.994	1139.8417	1160.2371	1192.2273	1232.1407	1241.771	1247.5083	1262.2167	1271.1632	1309.1939	1322.8725	1337.5183	1359.9722	1450.3434	1484.0529	1503.1396	3033.238	3044.4323	3063.7169	3084.3485	3087.365	3096.0183	3139.7247	3184.6098	3234.1658	3788.7113
OC12C3C1C1C3CCC21	O[C@]12[C@@H]3[C@H]1[C@H]1[C@@H]3CC[C@@H]21	
InChI=1S/C8H10O/c9-8-4-2-1-3-5(4)7(8)6(3)8/h3-7,9H,1-2H2	InChI=1S/C8H10O/c9-8-4-2-1-3-5(4)7(8)6(3)8/h3-7,9H,1-2H2/t3-,4+,5-,6-,7+,8+/m0/s1
