19
gdb 103364	3.18495	1.42933	1.28517	2.438	74.94	-0.2392	-0.0032	0.2361	1043.4276	0.160275	-422.984805	-422.977091	-422.976147	-423.016622	31.848	
O	 0.7714386115	-0.3460060888	 1.213446424	-0.426848
C	 0.1314686372	-0.0207980879	-0.0059028494	-0.10707
C	-1.2945650522	-0.568257054	-0.0298504807	 0.424933
O	-1.8938887707	 0.0435714047	 1.0839795535	-0.503697
C	-2.0689852219	-0.5653277112	-1.4154193819	-0.136421
C	-1.2602447066	-1.8657043864	-1.748063035	-0.226524
C	-1.4747995702	-2.134245125	-0.2201375706	-0.119897
C	-3.00603771	-2.2236639874	-0.1946525626	-0.120272
C	-3.3929280399	-1.2012736941	-0.9718390475	-0.105571
H	 0.1449697177	-0.0994378282	 1.9047134317	 0.2903
H	 0.0735371387	 1.0702203014	-0.1520414093	 0.091533
H	 0.7499772286	-0.4324758916	-0.8036730672	 0.107494
H	-2.7862481349	-0.3200246276	 1.1585201564	 0.274421
H	-2.0954771842	 0.3042307815	-2.071846376	 0.064339
H	-1.7476754199	-2.5665495649	-2.4271486349	 0.101192
H	-0.2238931501	-1.70410337	-2.0487423614	 0.10466
H	-0.8876899938	-2.855756597	 0.3452848052	 0.074682
H	-3.6009535963	-2.9540623415	 0.3356244848	 0.106081
H	-4.386671853	-0.8720745221	-1.241107339	 0.106665
105.9716	158.0944	279.9849	321.3281	393.2382	404.7991	469.8274	490.0558	506.7871	563.2665	584.7969	675.9053	746.7983	784.3385	825.1885	829.8518	894.158	923.5295	923.9712	931.2437	976.1028	994.4303	1025.9512	1063.0874	1085.2474	1092.9728	1123.9746	1126.4188	1164.2762	1206.6538	1214.1573	1241.1388	1243.9566	1270.6217	1318.0401	1366.7049	1392.6526	1447.4764	1493.2059	1514.0199	1607.2528	2974.1434	3077.258	3119.9321	3122.2118	3136.9199	3143.9462	3217.1127	3243.2584	3745.7129	3790.4262
OCC1(O)C2CC1C=C2	OC[C@@]1(O)[C@H]2C[C@@H]1C=C2	
InChI=1S/C7H10O2/c8-4-7(9)5-1-2-6(7)3-5/h1-2,5-6,8-9H,3-4H2	InChI=1S/C7H10O2/c8-4-7(9)5-1-2-6(7)3-5/h1-2,5-6,8-9H,3-4H2/t5-,6+,7-
