12
gdb 133506	4.26182	0.66111	0.65784	2.8353	57.25	-0.2881	-0.017	0.2711	1616.7745	0.072394	-566.923632	-566.915271	-566.914327	-566.959878	28.286	
F	 0.0836859298	 0.059004078	 0.0323126598	-0.06956
C	-0.028979684	 1.3938779585	 0.012277563	 0.263755
F	 1.2036239377	 1.9042768444	-0.1056416273	-0.067899
F	-0.711818773	 1.7264913287	-1.0902380453	-0.066463
C	-0.6915674824	 1.8827152238	 1.2194192011	-0.134292
C	-1.2283617168	 2.2880481558	 2.2147670809	 0.166665
C	-1.8936508307	 2.7493047326	 3.4040901623	-0.134879
C	-1.1550950236	 3.4611263249	 4.467512024	-0.156609
O	-2.009648723	 4.1666425704	 3.5783347128	-0.203013
H	-2.7834283405	 2.1866540853	 3.6826103102	 0.134077
H	-1.5061437306	 3.3739795246	 5.4943892212	 0.131557
H	-0.0899725129	 3.6413810531	 4.3394446473	 0.13666
8.7401	81.7352	87.4119	197.7449	213.3422	375.3229	437.0479	454.7171	529.2729	581.3407	614.0578	624.1721	749.047	844.3428	870.7074	963.8558	1065.0714	1100.7306	1158.0017	1165.4708	1185.0119	1186.2641	1262.2768	1302.8833	1404.1748	1519.2775	2386.9264	3093.37	3125.4862	3189.7079
FC(F)(F)C#CC1CO1	FC(F)(F)C#C[C@H]1CO1	
InChI=1S/C5H3F3O/c6-5(7,8)2-1-4-3-9-4/h4H,3H2	InChI=1S/C5H3F3O/c6-5(7,8)2-1-4-3-9-4/h4H,3H2/t4-/m0/s1
