15
gdb 62412	2.38523	1.55768	1.36587	5.0048	70.37	-0.2612	-0.0483	0.2129	1001.7619	0.1117	-416.785754	-416.777556	-416.776612	-416.818493	30.15	
C	-0.0405243019	 1.5821938737	-0.0658985489	-0.45274
C	 0.0038194604	 0.0532323219	-0.0425593995	 0.006401
C	-1.2954622465	-0.5362628837	 0.2544705927	 0.246342
N	-2.3273003115	-1.0086178907	 0.4769266646	-0.327291
C	 0.7055368149	-0.6922245275	-1.2125991094	-0.073526
N	 2.068644519	-0.172489059	-1.2493311279	-0.335502
C	 1.7403094776	-1.3059007001	-0.3142363641	-0.178825
C	 1.1095029632	-0.6410081319	 0.8830422919	 0.437459
O	 1.2477823447	-0.6964766512	 2.0625438286	-0.283234
H	 0.9351515195	 1.9668918626	-0.3664271496	 0.155
H	-0.8009760668	 1.9403693751	-0.7653536907	 0.137519
H	-0.2833637485	 1.9618342563	 0.9298921437	 0.151844
H	 0.2156255179	-1.1360183431	-2.0685772685	 0.132264
H	 2.5510953917	-0.5924680796	-2.0436392433	 0.252331
H	 2.2706106462	-2.2470734328	-0.3717408496	 0.131958
110.826	136.4616	179.3404	203.2389	220.6973	266.4043	403.0047	473.8906	504.6178	562.6781	652.1608	679.2439	733.655	822.6218	830.7843	852.5856	921.1755	948.4211	963.4755	1051.0324	1086.8786	1102.1642	1134.5161	1158.2339	1211.7646	1260.4684	1315.4599	1349.8245	1403.1622	1488.7876	1497.157	1915.334	2348.8569	3052.8329	3125.1413	3149.8991	3210.9687	3222.2093	3480.7779
CC1(C#N)C2NC2C1=O	C[C@@]1(C#N)[C@H]2N[C@H]2C1=O	
InChI=1S/C6H6N2O/c1-6(2-7)4-3(8-4)5(6)9/h3-4,8H,1H3	InChI=1S/C6H6N2O/c1-6(2-7)4-3(8-4)5(6)9/h3-4,8H,1H3/t3-,4+,6-/m1/s1
