14
gdb 132445	3.2454	1.3485	0.95351	2.3725	70.6	-0.1899	-0.0218	0.1681	1114.064	0.102368	-478.043099	-478.035709	-478.034765	-478.074755	28.983	
N	 0.0049475136	 1.3965394815	 0.1463555462	-0.581077
C	-0.0664805179	 0.0179598	 0.0497682393	 0.171751
C	-1.212922059	-0.7298588098	 0.0243220387	-0.160712
C	-1.1846389363	-2.1568596818	-0.0148311161	-0.329654
C	 0.0234295158	-2.7577770994	-0.0266033506	 0.388746
F	 0.2136274845	-4.0716667558	-0.0577176542	-0.062087
N	 1.1775722697	-2.0315288834	-0.0095948785	-0.438768
C	 1.241289369	-0.6391335748	 0.0162276437	 0.418842
O	 2.3141336839	-0.0480729091	 0.0012595128	-0.410831
H	 0.9242293647	 1.7463563174	-0.0920140683	 0.265069
H	-0.7559138312	 1.9184959082	-0.2596752665	 0.248209
H	-2.1773110521	-0.2319804583	 0.0400210588	 0.100413
H	-2.087927466	-2.7488650484	-0.0300181986	 0.119059
H	 2.0651280414	-2.5151328363	-0.0383399566	 0.27104
138.3217	194.9929	312.2923	346.619	349.3447	397.3659	423.1594	456.9683	542.3262	594.3439	608.3009	621.989	663.0305	737.3917	781.7921	793.0037	809.7967	897.0614	1013.6008	1070.4785	1152.5442	1235.6217	1255.1272	1303.6746	1343.6439	1439.6053	1500.2845	1603.7173	1643.6323	1696.6295	1759.6286	3177.4228	3241.2764	3549.3609	3609.6711	3670.5082
NC1=CC=C(F)NC1=O	Nc1ccc(F)[nH]c1=O	
InChI=1S/C5H5FN2O/c6-4-2-1-3(7)5(9)8-4/h1-2H,7H2,(H,8,9)	InChI=1S/C5H5FN2O/c6-4-2-1-3(7)5(9)8-4/h1-2H,7H2,(H,8,9)
