21
gdb 81330	2.99207	1.39877	1.26279	0.6705	77.76	-0.2285	0.0698	0.2983	1104.0347	0.181988	-424.204438	-424.195728	-424.194784	-424.23698	34.899	
C	-0.0333510067	 1.5085118687	 0.0031020572	-0.433669
C	 0.0298142657	-0.0201992628	 0.0781444259	 0.402782
C	-1.3852571777	-0.5778669824	-0.0979969362	-0.431715
O	 0.8953229738	-0.5346215839	-0.9917788321	-0.328341
C	 1.895177795	-1.2649186624	-0.2679222542	 0.060001
C	 1.1114196688	-2.0472489799	 0.808826927	-0.258438
C	 0.808921338	-0.5870449742	 1.2887515993	-0.11278
C	 2.2793500079	-0.2662475822	 0.8654353531	 0.125131
O	 3.2001868989	-0.7155502547	 1.8344507133	-0.44238
H	 0.9409700292	 1.9804774385	 0.1355393368	 0.117221
H	-0.4216013167	 1.8123572289	-0.9737454181	 0.123949
H	-0.7097847496	 1.8983933874	 0.7710927743	 0.112629
H	-1.7830649002	-0.2644934544	-1.0681037443	 0.123032
H	-1.4126342501	-1.6673404668	-0.063511039	 0.118063
H	-2.0497737046	-0.1908750291	 0.6818346219	 0.11105
H	 2.6070970513	-1.7103158924	-0.9635159311	 0.070631
H	 0.2921104582	-2.6853219035	 0.4790746235	 0.096098
H	 1.7641102824	-2.5708985154	 1.5039341482	 0.11971
H	 0.4377926082	-0.3548020718	 2.2865088414	 0.073957
H	 2.510518901	 0.7522294666	 0.5378506703	 0.067108
H	 4.0790277168	-0.6843822743	 1.4432931527	 0.28596
131.1564	197.3519	205.1327	216.267	286.1483	300.355	342.6345	381.1846	404.1269	483.0893	506.7853	537.5751	591.2076	752.0911	817.6183	851.1117	875.3251	910.1144	924.0477	933.1564	965.5692	980.242	998.325	1025.1959	1063.8936	1084.7142	1104.5674	1120.468	1182.0432	1191.8915	1216.5208	1225.9552	1233.8235	1258.9099	1287.8815	1312.7716	1323.0879	1397.5158	1415.6829	1422.4036	1473.4464	1482.4024	1491.5983	1502.9906	1510.5696	3038.7169	3045.5074	3056.1309	3100.3381	3102.9241	3111.2359	3118.4402	3127.6182	3136.1472	3138.6846	3172.697	3816.2017
CC1(C)OC2CC1C2O	CC1(C)O[C@@H]2C[C@H]1[C@H]2O	
InChI=1S/C7H12O2/c1-7(2)4-3-5(9-7)6(4)8/h4-6,8H,3H2,1-2H3	InChI=1S/C7H12O2/c1-7(2)4-3-5(9-7)6(4)8/h4-6,8H,3H2,1-2H3/t4-,5+,6+/m0/s1
