17
gdb 5975	3.65282	1.23027	1.14169	5.056	65.59	-0.2868	0.0181	0.3049	1111.2231	0.139434	-400.998676	-400.989291	-400.988346	-401.032626	33.061	
C	-0.186611471	 1.3681552541	-0.1044375235	-0.236259
O	-0.0805844017	-0.041239297	-0.0901144253	-0.257958
C	 0.7657975306	-0.5534025354	-1.0964438604	-0.092316
C	 0.6323854573	-2.0907654479	-1.0163693287	 0.196614
C	 1.2464774145	-2.644508239	 0.2819721321	-0.416064
O	-0.7374313619	-2.4426912751	-1.1220473812	-0.455347
C	 1.3270014444	-2.6707710623	-2.1835384328	 0.281347
N	 1.9105364261	-3.101408202	-3.0821696634	-0.332331
H	 0.7875005999	 1.8448122295	 0.0759273451	 0.119372
H	-0.5818017813	 1.7322570406	-1.063876326	 0.119998
H	-0.8741336397	 1.648382726	 0.6962398258	 0.138566
H	 0.4426291816	-0.2087896265	-2.0895960918	 0.116941
H	 1.809635875	-0.2436540494	-0.9406389625	 0.111857
H	 0.7808955274	-2.1435798421	 1.1337238766	 0.13652
H	 1.0562898313	-3.717337636	 0.3470891433	 0.144078
H	 2.3260092871	-2.4715374726	 0.3156443461	 0.129254
H	-1.2062554296	-1.7803753447	-0.5957739135	 0.295728
81.8738	114.6291	126.267	198.8722	224.5067	229.7758	262.5076	333.1263	381.8174	407.6336	412.2914	472.7337	589.4826	591.6392	770.0613	909.5102	942.3874	985.9178	998.6653	1136.3172	1148.7823	1162.2624	1192.2631	1201.0798	1229.2746	1281.9367	1379.1694	1403.7665	1424.29	1479.835	1486.6738	1488.9627	1491.8336	1500.2015	1522.5225	2366.1714	2985.8444	2994.8705	3033.766	3043.8767	3052.5492	3127.2713	3130.8055	3147.3194	3758.8977
COCC(C)(O)C#N	COC[C@@](C)(O)C#N	
InChI=1S/C5H9NO2/c1-5(7,3-6)4-8-2/h7H,4H2,1-2H3	InChI=1S/C5H9NO2/c1-5(7,3-6)4-8-2/h7H,4H2,1-2H3/t5-/m0/s1
