20
gdb 6042	2.90848	1.47363	1.36728	2.5521	71.23	-0.2385	-0.0092	0.2292	1056.657	0.172746	-386.169842	-386.159582	-386.158638	-386.205046	36.851	
C	 0.114277171	 1.4490113182	-0.2953376478	-0.419907
C	-0.0630801468	-0.0530391484	-0.0585023199	-0.169946
C	-1.5317754442	-0.5138820768	 0.1162292986	 0.244731
C	-2.19012004	 0.0654258318	 1.3768532961	-0.428378
O	-2.3025083337	-0.2036683955	-1.0453804681	-0.471594
C	-1.5089070163	-2.051653522	 0.2485185648	 0.381351
C	-2.1915443245	-2.8690879827	-0.8245392616	-0.474589
O	-0.9437087244	-2.5569550107	 1.1921856924	-0.325538
H	 1.1699194781	 1.6848538208	-0.4584549216	 0.124106
H	-0.4294032743	 1.780580525	-1.1870539982	 0.110596
H	-0.2252534834	 2.0479182444	 0.5553206697	 0.121919
H	 0.3575904393	-0.5981781105	-0.9122328878	 0.100921
H	 0.4957077534	-0.3735327364	 0.8258915208	 0.120876
H	-2.1879697527	 1.1601552669	 1.3551665907	 0.107923
H	-3.2295043827	-0.269075241	 1.445822615	 0.123174
H	-1.6562180661	-0.2689442961	 2.2687982366	 0.1443
H	-2.448693594	 0.7469713663	-1.059331225	 0.282833
H	-1.779056743	-2.6248343294	-1.8083497664	 0.147959
H	-2.0646721871	-3.9298834493	-0.6065170859	 0.130795
H	-3.2537103886	-2.6103916947	-0.8734835826	 0.148467
31.7654	87.2121	160.6855	183.713	216.0655	245.0018	254.1644	279.3869	308.6378	331.2779	366.7881	435.668	501.7262	575.2963	595.7617	692.9445	783.9466	833.6975	923.4708	966.0442	1004.3408	1012.5129	1024.0199	1071.7544	1119.4414	1180.4608	1193.984	1210.6875	1314.1037	1343.2712	1376.2856	1388.4674	1399.1507	1411.4866	1453.9576	1462.8848	1476.0434	1491.1078	1498.0032	1505.5684	1509.6257	1805.2521	3032.9426	3034.7692	3041.5282	3049.5358	3084.1957	3104.5211	3105.2861	3112.0525	3112.3105	3137.236	3158.2335	3828.2453
CCC(C)(O)C(C)=O	CC[C@@](C)(O)C(=O)C	
InChI=1S/C6H12O2/c1-4-6(3,8)5(2)7/h8H,4H2,1-3H3	InChI=1S/C6H12O2/c1-4-6(3,8)5(2)7/h8H,4H2,1-3H3/t6-/m1/s1
