17
gdb 88051	2.42127	1.35756	1.09657	5.1497	73.37	-0.2276	0.0253	0.2529	1147.6251	0.13568	-417.965303	-417.956662	-417.955717	-417.999066	31.928	
O	 0.1239879004	 1.3109009122	 0.0014134883	-0.414449
C	 0.06698995	-0.0713241257	 0.1572958169	 0.049038
C	-0.7195395875	-0.6472986873	 1.3297547156	-0.408703
C	-1.2704792922	-0.687662401	-0.0716912149	 0.360211
N	-2.4445275318	 0.013664919	-0.5806902522	-0.3373
C	-2.981516061	-1.2336185757	-1.1733736811	-0.167043
C	-1.6268106149	-1.9573212687	-0.8743472868	-0.275705
C	-0.7815366507	-2.2495378885	-2.0208134651	 0.297098
N	-0.0993784557	-2.488739238	-2.9230949575	-0.332945
H	 0.7792841417	 1.6536413367	 0.6184055219	 0.291636
H	 0.9403801616	-0.6265935793	-0.1870272997	 0.104574
H	-0.3810400002	-1.5673551771	 1.797395587	 0.117723
H	-1.1643992795	 0.0774073334	 2.0056749714	 0.119296
H	-3.0301670221	 0.4490969738	 0.1220064627	 0.226313
H	-3.8156249068	-1.6920893922	-0.6303213665	 0.109988
H	-3.2463814275	-1.141283759	-2.2295784778	 0.131274
H	-1.7274763336	-2.8586350326	-0.2658866022	 0.128992
58.5452	96.9855	174.9175	184.4201	251.0161	301.6142	358.3997	427.8171	455.9829	527.4013	573.9198	634.5637	698.9387	783.0977	812.0664	878.1308	913.1099	982.6315	990.3014	1009.2139	1038.8798	1053.2559	1090.7987	1099.0598	1152.2459	1167.9274	1194.875	1216.8089	1281.2692	1309.5072	1331.7621	1342.3501	1382.5747	1425.0453	1494.1252	1523.2489	2356.5965	3033.0312	3086.5453	3096.308	3097.9097	3113.4991	3206.1597	3544.803	3805.0716
OC1CC11NCC1C#N	O[C@H]1C[C@]21NC[C@H]2C#N	
InChI=1S/C6H8N2O/c7-2-4-3-8-6(4)1-5(6)9/h4-5,8-9H,1,3H2	InChI=1S/C6H8N2O/c7-2-4-3-8-6(4)1-5(6)9/h4-5,8-9H,1,3H2/t4-,5+,6+/m1/s1
