17
gdb 114175	4.42622	0.95722	0.85474	2.6007	71.63	-0.2586	-0.0418	0.2169	1340.3465	0.133146	-458.916479	-458.907713	-458.906769	-458.950484	31.298	
C	-0.1468691159	 1.3156163816	 0.0275865178	-0.239219
O	 0.3349907594	-0.0001568248	-0.1537547457	-0.240898
C	 0.7597424274	-0.5984571451	 1.0292381592	 0.143274
C	-0.3027078975	-1.144112635	 2.0632800055	-0.354944
C	 0.3450388103	-2.5178451255	 1.9027988337	 0.313334
O	 0.2307370901	-2.8900885971	 0.5232395364	-0.257854
C	 1.2954713663	-2.0222980478	 0.8541026894	-0.076041
C	 0.6079333711	-3.5773075715	 2.8923447812	 0.064133
O	 0.3606617658	-3.4718524126	 4.0687461205	-0.257915
H	 0.625098182	 1.9737464263	 0.4556543391	 0.108501
H	-0.4294608162	 1.6931731548	-0.9572105013	 0.135725
H	-1.0281226538	 1.3419274136	 0.6849089229	 0.114998
H	 1.5031226202	 0.0245972331	 1.5510587779	 0.080944
H	-0.2024888409	-0.7224283745	 3.0635808999	 0.132338
H	-1.3415798831	-1.1094953844	 1.7313354147	 0.124515
H	 2.3007530324	-2.3454026575	 0.6066018537	 0.118792
H	 1.0732003023	-4.4867542336	 2.4544692852	 0.090318
77.3591	99.3317	132.3498	166.5641	204.6928	269.4317	306.4234	403.5762	447.431	488.1351	597.7154	705.1684	766.015	813.0992	849.4537	932.2135	963.5291	997.2488	1014.4565	1029.5455	1063.046	1129.0789	1170.0592	1182.379	1199.5836	1214.2925	1241.5414	1273.0269	1311.5943	1368.7293	1388.588	1435.6706	1465.1927	1483.7395	1487.0108	1507.1507	1809.1909	2905.8285	2977.6233	2985.7995	3030.9846	3087.1986	3125.0453	3154.1081	3184.2743
COC1CC2(OC12)C=O	CO[C@H]1C[C@]2(O[C@@H]12)C=O	
InChI=1S/C6H8O3/c1-8-4-2-6(3-7)5(4)9-6/h3-5H,2H2,1H3	InChI=1S/C6H8O3/c1-8-4-2-6(3-7)5(4)9-6/h3-5H,2H2,1H3/t4-,5-,6-/m0/s1
