19
gdb 39673	4.3691	1.06751	0.91019	0.4717	77.59	-0.228	0.0143	0.2423	1291.0778	0.15995	-423.004478	-422.996289	-422.995344	-423.038464	29.896	
C	-0.0156610034	 1.3126302004	-0.1371046135	-0.06066
C	 1.4994587497	 1.5075404936	 0.0735752592	-0.295024
C	 1.4343172411	 0.1306196135	 0.7667826801	 0.148978
O	 0.019848556	 0.0094684947	 0.4875365332	-0.29906
C	 2.2220305952	-1.0142990577	 0.1295275806	 0.064721
O	 3.6172494881	-0.8108609523	 0.3641366023	-0.281182
C	 4.1803014998	-1.9444821903	 1.0244226831	-0.114933
C	 3.0259930385	-2.8817056709	 1.2433421132	-0.096159
C	 1.9186469895	-2.3599775915	 0.7290155283	-0.095643
H	-0.6623779639	 2.0076183728	 0.4125021185	 0.102431
H	-0.3600766963	 1.2572528172	-1.1765923797	 0.103892
H	 2.1012325558	 1.5264912101	-0.8368113271	 0.117685
H	 1.787595254	 2.3437966816	 0.7109041717	 0.11226
H	 1.6338173247	 0.1449828332	 1.8463298185	 0.074207
H	 2.0232587022	-0.9999373251	-0.9557673557	 0.077755
H	 4.9699020016	-2.3896278996	 0.3978701045	 0.105148
H	 4.655690199	-1.6280112718	 1.9655854621	 0.106966
H	 3.1260856746	-3.8355944377	 1.7456876937	 0.106969
H	 0.924992294	-2.7868054702	 0.7235278169	 0.121647
63.0196	70.3443	96.1157	157.1663	288.5413	332.1101	413.0211	488.5877	714.0658	766.6938	777.5667	815.3395	833.1254	888.7926	931.437	935.2174	958.2929	964.551	984.3158	1030.1609	1043.2449	1047.8693	1091.5548	1111.8681	1117.5492	1154.9808	1170.0404	1197.6496	1214.1526	1257.3074	1269.1689	1293.768	1309.5268	1350.1599	1361.4851	1382.6539	1402.5571	1491.612	1521.6603	1531.1537	1688.8232	2953.8072	2973.7383	2993.7826	3015.1162	3022.2315	3056.845	3084.779	3140.1792	3211.229	3241.189
C1CC(O1)C1OCC=C1	C1C[C@@H](O1)[C@H]1OCC=C1	
InChI=1S/C7H10O2/c1-2-6(8-4-1)7-3-5-9-7/h1-2,6-7H,3-5H2	InChI=1S/C7H10O2/c1-2-6(8-4-1)7-3-5-9-7/h1-2,6-7H,3-5H2/t6-,7+/m0/s1
