16
gdb 61373	3.69119	0.81527	0.72866	2.2697	73.4	-0.2612	-0.0851	0.1761	1505.3994	0.122459	-434.088624	-434.07885	-434.077906	-434.124207	33.646	
C	-0.0563959962	 1.5864681335	 0.0051761486	-0.394512
C	-0.0043872289	 0.0468259608	 0.0210737338	-0.091084
N	 0.7677982572	-0.496109034	 1.1293176922	-0.333973
C	 2.1316066607	-0.5858970763	 1.0565829726	 0.29972
N	 2.7896354526	-0.2738533313	 0.0077651183	-0.517411
C	 2.7821286786	-1.120201585	 2.3173601142	 0.108897
O	 3.9696227967	-1.2753168276	 2.4080694769	-0.226261
C	-1.3550871638	-0.532525874	 0.0509757915	 0.268008
N	-2.4249504984	-0.9660075201	 0.0935686152	-0.309576
H	 0.9640195776	 1.9682368531	-0.0614759931	 0.158126
H	-0.6244255315	 1.938218409	-0.8599347873	 0.143503
H	-0.531242376	 1.9688846429	 0.9125897826	 0.129941
H	 0.4987773193	-0.2911818823	-0.8917227666	 0.173003
H	 0.3170304847	-0.5764087683	 2.0266768531	 0.259138
H	 3.7779522551	-0.4717363534	 0.1723380043	 0.24255
H	 2.0948459523	-1.363629137	 3.1584944338	 0.089931
51.6825	62.5982	123.6671	169.0423	188.0256	236.356	274.7437	298.6878	316.562	380.9611	433.4398	554.4427	574.6008	588.5481	740.4626	832.28	867.5515	933.758	958.6243	1023.9124	1082.9471	1093.3736	1139.3044	1177.4129	1282.1476	1335.7765	1369.938	1402.6885	1431.8466	1487.4411	1495.3478	1547.3869	1699.9171	1837.5743	2364.1771	2883.673	3052.4036	3064.7153	3130.8491	3148.1884	3477.0713	3639.0075
CC(NC(=N)C=O)C#N	C[C@@H](NC(=N)C=O)C#N	
InChI=1S/C5H7N3O/c1-4(2-6)8-5(7)3-9/h3-4H,1H3,(H2,7,8)	InChI=1S/C5H7N3O/c1-4(2-6)8-5(7)3-9/h3-4H,1H3,(H2,7,8)/t4-/m1/s1
