13
gdb 132793	2.40696	1.78607	1.02625	2.3854	64.78	-0.2218	-0.0146	0.2072	1024.1876	0.08961	-502.057106	-502.049939	-502.048995	-502.088611	27.647	
N	-0.0227010104	 1.4238922366	 0.1546897368	-0.60359
C	-0.0122004089	 0.0418523958	 0.0521926511	 0.026715
C	-1.1719439022	-0.7286997605	 0.0339117793	 0.269504
F	-2.3455671421	-0.0846118314	 0.046962253	-0.081281
C	-1.1240941941	-2.1140390632	-0.0034392977	-0.253041
C	 0.1279652058	-2.7128212147	-0.027205822	-0.017434
N	 1.2692402449	-2.0086020543	-0.0224056847	-0.319548
C	 1.1725472318	-0.7080358164	 0.0143476925	 0.300127
F	 2.3127592002	-0.0033359269	 0.006458015	-0.084918
H	 0.8185520571	 1.8695977518	-0.1796568664	 0.263589
H	-0.8677417019	 1.8632477001	-0.1791005476	 0.260867
H	-2.0403723178	-2.6904913483	-0.015195793	 0.117856
H	 0.2271838177	-3.7927121785	-0.0542559261	 0.121153
147.7796	263.5023	272.2112	313.5103	331.3647	332.4045	491.3229	540.5427	563.6708	572.3459	610.8813	623.963	726.1809	764.6169	834.4723	858.1333	944.0101	978.3899	1092.1628	1206.7495	1267.9069	1302.4654	1321.5423	1370.9043	1495.0442	1530.748	1622.1181	1630.9792	1667.4656	3184.622	3219.1832	3572.577	3680.2844
NC1=C(F)C=CN=C1F	Nc1c(F)ccnc1F	
InChI=1S/C5H4F2N2/c6-3-1-2-9-5(7)4(3)8/h1-2H,8H2	InChI=1S/C5H4F2N2/c6-3-1-2-9-5(7)4(3)8/h1-2H,8H2
