18
gdb 83451	2.89731	1.16437	1.03976	3.0765	75.92	-0.26	0.0278	0.2878	1204.0062	0.147747	-401.931083	-401.9225	-401.921555	-401.964762	32.12	
O	-0.1507252308	 1.4232694923	 0.1790886296	-0.41803
C	-0.1593766818	 0.0322757705	 0.0659324564	 0.073866
C	-0.4113005349	-0.8053775818	 1.2772472229	-0.164804
C	-1.4490991079	-0.1305031918	 2.1832245067	-0.215234
C	-2.4631280299	-0.1061155575	 0.9970431373	-0.278344
C	-1.4192598257	-0.7884630125	 0.1011553373	 0.296142
C	-1.7294739313	-1.8455269668	-0.9346873822	-0.455993
C	-2.3720909813	-1.2721330439	-2.121616801	 0.259935
N	-2.8737577833	-0.7875135544	-3.0431087691	-0.308975
H	-0.4834341494	 1.7942885955	-0.6454591737	 0.294546
H	 0.6084119583	-0.3723353463	-0.5967197961	 0.086746
H	 0.2820354368	-1.5816226845	 1.5815040459	 0.09093
H	-1.7795651839	-0.7766699284	 2.998255094	 0.104374
H	-1.1531552687	 0.8392313452	 2.5876414265	 0.120386
H	-3.3339639051	-0.7401606258	 1.179921159	 0.105197
H	-2.8053812568	 0.8763102753	 0.6628945365	 0.107328
H	-0.8113890225	-2.3544834887	-1.2508710923	 0.151114
H	-2.3901434019	-2.6177326162	-0.5214865577	 0.150818
51.3992	95.0908	213.8078	240.2732	262.3274	299.5412	324.7559	390.1856	455.6148	475.1669	582.5409	704.1793	761.1758	792.4239	817.9326	898.3254	914.7074	933.5941	956.6202	963.3477	1012.6905	1052.718	1093.9066	1127.299	1142.2401	1194.6264	1224.0972	1242.0372	1248.578	1269.4284	1300.1836	1322.3275	1327.8567	1349.6762	1457.3016	1466.3069	1475.2567	1508.0868	2358.7129	3031.8664	3063.1735	3069.8896	3077.0768	3085.7322	3109.9323	3132.5364	3173.4887	3803.5857
OC1C2CCC12CC#N	O[C@H]1[C@H]2CC[C@@]12CC#N	
InChI=1S/C7H9NO/c8-4-3-7-2-1-5(7)6(7)9/h5-6,9H,1-3H2	InChI=1S/C7H9NO/c8-4-3-7-2-1-5(7)6(7)9/h5-6,9H,1-3H2/t5-,6+,7+/m1/s1
