22
gdb 95161	2.69802	1.40129	1.06886	2.5655	82.53	-0.2352	0.0725	0.3077	1219.9934	0.195056	-404.341668	-404.332876	-404.331932	-404.374633	34.684	
C	 0.0305305496	 1.5394889476	 0.0893763139	-0.403014
C	 0.0027732302	 0.0196939086	 0.0277976468	 0.140749
C	 0.6431680225	-0.5360707719	-1.2535925767	-0.255694
C	 0.8872867449	-2.0437001986	-1.1707260378	 0.317831
C	 0.4964663694	-2.8492329887	-2.3904237722	-0.479721
N	 2.1355814914	-2.4066695547	-0.4622605731	-0.357298
C	 0.8376653808	-2.6794299608	 0.1758980065	-0.083431
C	 0.4969063705	-1.8427803178	 1.391141514	-0.086173
O	 0.685156652	-0.4600829341	 1.179352548	-0.250273
H	 1.064888765	 1.896763697	 0.0914011148	 0.127769
H	-0.4846127903	 1.9710865949	-0.7744136463	 0.110395
H	-0.4567023032	 1.8954665854	 1.0009775135	 0.119797
H	-1.0461628046	-0.3273326515	 0.0712981739	 0.054858
H	-0.0104275867	-0.3076968384	-2.1033718302	 0.089836
H	 1.5999780142	-0.0323173124	-1.4283207692	 0.111495
H	 1.0605731909	-2.5198982813	-3.2715011134	 0.123538
H	 0.6929572295	-3.9167432327	-2.2418177991	 0.109282
H	-0.5686679772	-2.733338143	-2.6202203304	 0.121949
H	 2.512884113	-3.2683061512	-0.851009093	 0.221292
H	 0.5006029213	-3.7139317477	 0.23309762	 0.076404
H	-0.5511948154	-2.0480684125	 1.6753672859	 0.08019
H	 1.1370105723	-2.1131967662	 2.2376929243	 0.110219
91.7326	177.1747	220.8617	235.5161	246.5047	299.6826	351.3992	376.3967	407.7612	441.5628	488.1483	524.2798	680.0393	741.0243	791.9508	829.0331	898.7758	908.2797	911.1778	951.783	985.0837	1026.1737	1044.0769	1075.5119	1096.566	1116.2339	1140.3651	1159.575	1164.8563	1194.2497	1252.6349	1278.8252	1295.9161	1323.8214	1356.5555	1386.913	1391.4588	1411.3859	1412.1713	1420.3516	1458.3517	1471.2404	1483.9644	1485.9235	1487.9044	1500.7591	1501.8695	2928.2183	2944.3522	3018.3326	3033.9225	3042.1232	3068.0057	3080.557	3082.8363	3093.1319	3111.5095	3114.9224	3120.8412	3485.0615
CC1CC2(C)NC2CO1	C[C@H]1C[C@@]2(C)N[C@H]2CO1	
InChI=1S/C7H13NO/c1-5-3-7(2)6(8-7)4-9-5/h5-6,8H,3-4H2,1-2H3	InChI=1S/C7H13NO/c1-5-3-7(2)6(8-7)4-9-5/h5-6,8H,3-4H2,1-2H3/t5-,6-,7+/m0/s1
