20
gdb 110969	2.43256	1.27133	1.08874	3.3394	75.74	-0.2496	0.0613	0.311	1217.7866	0.170316	-440.198465	-440.189237	-440.188293	-440.232414	34.969	
C	 0.0103463004	 1.522995768	-0.4160022103	-0.452621
C	 0.0682437454	 0.0381851582	-0.1051068788	 0.017252
N	 1.1987322054	-0.8085295539	-0.7367764378	-0.183545
C	 2.1149235922	-0.2393931673	 0.3565882459	-0.24785
C	 0.8062405286	-0.5714143339	 1.1260406309	 0.308888
O	 0.512302839	-0.4925632936	 2.4765597822	-0.464075
C	 0.8510442959	-1.8876309664	 0.3271582058	 0.022588
C	-0.3176454231	-2.8031554313	 0.0083400328	-0.118207
O	-0.0355287777	-3.5372652251	-1.1730703097	-0.421175
H	 0.9012098375	 2.0843413548	-0.126899375	 0.118927
H	-0.1436721852	 1.6709527292	-1.4900658966	 0.136975
H	-0.8461745099	 1.9686521986	 0.1015784045	 0.123571
H	-0.9096008862	-0.39431714	-0.3197513578	 0.075471
H	 2.9899220526	-0.8624050271	 0.5548798332	 0.108525
H	 2.4019135981	 0.7996539005	 0.2006239767	 0.101572
H	 0.5779928117	 0.4270669647	 2.7569076543	 0.28394
H	 1.7285154372	-2.5123002157	 0.5216851534	 0.084787
H	-0.4252516233	-3.5336667437	 0.8175212457	 0.116195
H	-1.2768647683	-2.2743850693	-0.0714413007	 0.09467
H	 0.3033879396	-2.9003720166	-1.8139537489	 0.294112
66.083	139.0168	153.3283	197.5511	231.7062	263.4701	296.6725	392.5856	407.648	422.6394	503.3248	598.5002	608.9363	644.7707	745.3064	790.9639	819.2073	872.6536	924.6697	980.2471	1034.7698	1042.7389	1061.9225	1081.6697	1113.7394	1127.4278	1156.8914	1162.0105	1187.0462	1192.9792	1219.6678	1242.403	1287.4383	1350.2955	1355.0694	1407.0208	1421.4038	1430.3307	1455.3979	1494.5287	1496.4423	1520.829	1546.5789	3006.5445	3039.059	3056.3381	3072.2187	3079.2071	3095.756	3099.8986	3123.8553	3151.0043	3783.2252	3805.0809
CC1N2CC1(O)C2CO	C[C@H]1N2C[C@]1(O)[C@H]2CO	
InChI=1S/C6H11NO2/c1-4-6(9)3-7(4)5(6)2-8/h4-5,8-9H,2-3H2,1H3	InChI=1S/C6H11NO2/c1-4-6(9)3-7(4)5(6)2-8/h4-5,8-9H,2-3H2,1H3/t4-,5-,6-/m1/s1
