17
gdb 65013	2.27214	1.34249	1.07929	5.113	72.81	-0.2634	-0.0447	0.2187	1170.0492	0.133967	-418.000501	-417.991134	-417.99019	-418.035241	33.143	
C	-0.2825110092	 1.4684686567	-0.4167949036	-0.482621
C	 0.0126324307	 0.0131547301	-0.1211129758	 0.305612
C	 1.0027026448	-0.7219559856	-0.9466725854	-0.277069
N	 1.311571189	-0.3717491654	 0.4530945257	-0.350454
C	-1.1430973902	-0.7849232982	 0.5120705379	-0.303872
C	-1.4315418579	-0.2472101331	 1.9199732275	 0.15441
O	-2.4979716699	 0.1360900738	 2.3108541668	-0.22052
C	-2.3317478212	-0.8088089234	-0.3375456803	 0.308363
N	-3.2509598736	-0.8222393741	-1.0362982691	-0.319504
H	 0.5852139268	 1.9501589167	-0.8767984634	 0.122927
H	-1.128586805	 1.5646211773	-1.1040866817	 0.160825
H	-0.5336028751	 2.0190504053	 0.4968281914	 0.138674
H	 0.8797113534	-1.7841423642	-1.1386304308	 0.129754
H	 1.4976422396	-0.1733895737	-1.7429380836	 0.12625
H	 1.9317591906	 0.4334409984	 0.4880560523	 0.238679
H	-0.7824110964	-1.8125187778	 0.6505251113	 0.151612
H	-0.5223345164	-0.2437777528	 2.5555292309	 0.116938
60.206	76.0903	134.5756	162.157	211.266	227.3665	328.3767	346.0549	363.2745	410.5368	470.7707	532.5308	709.3443	738.5664	817.6043	845.7817	932.4221	941.2326	984.665	995.9101	1011.5331	1060.637	1083.6882	1126.0721	1155.9793	1220.2022	1263.8841	1297.1894	1329.6643	1384.5379	1405.9235	1424.7271	1484.806	1499.0786	1517.2261	1842.8754	2368.461	2932.4855	3034.2229	3038.3499	3101.0434	3113.6357	3115.948	3199.9691	3503.8463
CC1(CN1)C(C=O)C#N	C[C@]1(CN1)[C@@H](C=O)C#N	
InChI=1S/C6H8N2O/c1-6(4-8-6)5(2-7)3-9/h3,5,8H,4H2,1H3	InChI=1S/C6H8N2O/c1-6(4-8-6)5(2-7)3-9/h3,5,8H,4H2,1H3/t5-,6+/m1/s1
