20
gdb 93805	2.40924	1.48486	1.12254	3.8341	75.14	-0.2344	-0.0186	0.2158	1151.706	0.171788	-440.310059	-440.301316	-440.300372	-440.343441	33.747	
C	 0.0227804824	 1.5453286046	-0.0164980742	-0.406509
C	 0.0974227743	 0.0255239254	 0.0284321062	-0.04787
N	 0.8468556978	-0.5021535511	-1.1221724033	-0.320104
C	 0.8599787201	-1.9630767257	-1.1738345389	-0.194091
C	 1.7456409204	-2.4344464679	-0.015039791	 0.141743
O	 3.0603609244	-1.9384212645	-0.1808090245	-0.437826
C	 1.1332761106	-1.9644869442	 1.3206955928	-0.32003
C	 0.7719110081	-0.4848110321	 1.3153486589	 0.398814
O	 0.9620492089	 0.2359725086	 2.2651384652	-0.302998
H	 1.0271697886	 1.9751413283	-0.0539044472	 0.132593
H	-0.5337529544	 1.8781755772	-0.8989166251	 0.105204
H	-0.4759137646	 1.9263350896	 0.8759344849	 0.140642
H	-0.9324861037	-0.3901573471	 0.0501092849	 0.075182
H	 0.4793216879	-0.1081281564	-1.980615317	 0.227878
H	-0.1476421083	-2.4107948396	-1.0961685307	 0.082918
H	 1.3033663361	-2.2793530083	-2.1222180661	 0.111611
H	 1.8201201288	-3.5268271753	-0.0135078327	 0.083976
H	 2.9519918495	-1.0385022798	-0.5221059731	 0.282415
H	 0.2009219021	-2.5201501888	 1.5001438525	 0.115735
H	 1.8094683212	-2.1603438928	 2.1552083585	 0.130716
71.2085	105.9057	191.6965	248.0973	286.8747	334.1708	361.5607	379.2543	459.0833	491.4398	524.842	544.0779	617.5364	715.1728	729.3598	834.1316	838.9891	896.824	929.7479	972.0991	1012.1298	1032.6578	1061.8287	1114.5698	1125.725	1151.6021	1167.3009	1221.7357	1247.3803	1257.5846	1311.0934	1326.3029	1351.0471	1378.0699	1393.7517	1410.6475	1435.0712	1448.3125	1469.9905	1490.365	1493.0095	1499.3465	1820.9498	2874.9936	2937.8861	3012.7587	3045.7812	3059.554	3087.2995	3116.3244	3117.5729	3146.0115	3534.8877	3720.713
CC1NCC(O)CC1=O	C[C@H]1NC[C@@H](O)CC1=O	
InChI=1S/C6H11NO2/c1-4-6(9)2-5(8)3-7-4/h4-5,7-8H,2-3H2,1H3	InChI=1S/C6H11NO2/c1-4-6(9)2-5(8)3-7-4/h4-5,7-8H,2-3H2,1H3/t4-,5+/m1/s1
