21
gdb 106603	2.49472	1.4987	1.2719	2.7608	81.81	-0.2278	-0.0004	0.2273	1120.9878	0.183697	-387.107752	-387.099273	-387.098329	-387.140741	32.982	
C	 0.0982774033	 1.5412186508	 0.1836617624	-0.392046
C	-0.0730675698	 0.0332975921	-0.0489624898	-0.294085
C	 0.6756672006	-0.4780812382	-1.260162073	 0.231097
C	 0.8670286602	-2.0099302818	-1.5676297361	-0.295757
C	 2.0806856801	-1.5452504401	-2.4394431275	-0.136041
C	 1.3677103746	-0.7379256158	-3.5454779724	-0.226046
C	 0.326458026	 0.0529079635	-2.6745846662	-0.261433
C	 2.2187348181	-0.4727726004	-1.3455862296	 0.413647
O	 3.1083133167	 0.0063937076	-0.7035262641	-0.338634
H	 1.1568995747	 1.7961150439	 0.2852904513	 0.144807
H	-0.3147378521	 2.1275959078	-0.6433983363	 0.114541
H	-0.416682213	 1.8523981511	 1.0973591972	 0.112166
H	 0.2831684353	-0.5080513298	 0.8362444372	 0.102785
H	-1.1390808049	-0.2110890038	-0.1503943103	 0.095123
H	 1.1572040111	-2.5889921005	-0.6885988541	 0.113418
H	 0.0489087003	-2.4995559844	-2.102948251	 0.102812
H	 2.897858761	-2.2071391703	-2.7176441502	 0.081786
H	 2.0510048617	-0.0788520982	-4.087253291	 0.111675
H	 0.8854030016	-1.3952308212	-4.2739744981	 0.105937
H	-0.7076646702	-0.1859615598	-2.941192043	 0.102581
H	 0.4518151348	 1.1352668474	-2.7569540655	 0.111667
80.7786	140.7599	177.7337	211.3762	258.4218	274.483	389.5015	428.9703	475.0964	575.4336	665.1023	714.2383	777.4442	783.3405	800.4069	858.6274	876.8244	904.0904	942.0207	966.534	980.1326	1008.7345	1019.8704	1035.5731	1090.9274	1113.4207	1128.4968	1144.7916	1203.2003	1223.2807	1235.4171	1252.7687	1260.799	1307.5071	1322.565	1344.7196	1380.2686	1411.4934	1484.6723	1490.1303	1496.2911	1501.7053	1511.595	1518.525	1886.1412	3014.0261	3040.3787	3049.3382	3049.9284	3058.8167	3061.8978	3092.4738	3105.8706	3111.6851	3121.1388	3127.3572	3146.7251
CCC12CC(CC1)C2=O	CC[C@@]12C[C@@H](CC1)C2=O	
InChI=1S/C8H12O/c1-2-8-4-3-6(5-8)7(8)9/h6H,2-5H2,1H3	InChI=1S/C8H12O/c1-2-8-4-3-6(5-8)7(8)9/h6H,2-5H2,1H3/t6-,8+/m1/s1
