14
gdb 50061	3.33522	0.96876	0.88814	5.0999	72.37	-0.2519	-0.082	0.1698	1296.6514	0.097927	-436.633034	-436.624161	-436.623217	-436.668405	30.819	
O	 0.3075323543	-0.4307743943	 0.5801624617	-0.257086
C	 0.709333681	 0.2063237164	-0.361125264	 0.170522
C	 1.4273054759	 1.5118925176	-0.1837991893	-0.126525
N	 2.2244593355	 1.9671542396	-1.3202423664	-0.307932
C	 1.053704136	 2.7635741568	-0.9508360342	-0.145617
C	-0.0894423214	 2.7854940662	-1.9317076282	 0.289729
O	-0.4131696879	 1.829181535	-2.6006443354	-0.295146
C	-0.7902645924	 4.0539588259	-2.0083948566	 0.238171
C	-1.3592628578	 5.1136300682	-2.0610499596	-0.396977
H	 0.6024355021	-0.124642493	-1.4089294404	 0.124645
H	 1.7794302395	 1.6820862291	 0.8317234073	 0.115952
H	 3.0760151681	 2.4270700059	-1.0096426521	 0.253886
H	 1.2099459537	 3.6981236103	-0.4177048671	 0.113798
H	-1.8760219964	 6.0410957862	-2.1209403858	 0.222577
19.7227	64.7601	139.0282	198.0455	238.996	261.3246	319.7171	358.7864	474.1605	508.5742	607.9364	654.8701	710.0111	744.1508	803.8073	846.3067	904.2642	935.6616	995.2227	1040.4185	1099.8036	1116.8663	1192.6857	1206.5611	1225.8823	1362.0529	1413.1324	1458.16	1768.1871	1817.6338	2211.2456	2994.0073	3137.5174	3147.815	3492.0721	3515.4233
O=CC1NC1C(=O)C#C	O=C[C@H]1N[C@H]1C(=O)C#C	
InChI=1S/C6H5NO2/c1-2-5(9)6-4(3-8)7-6/h1,3-4,6-7H	InChI=1S/C6H5NO2/c1-2-5(9)6-4(3-8)7-6/h1,3-4,6-7H/t4-,6-/m1/s1
