17
gdb 124953	2.93443	1.36114	0.98407	2.7512	74.47	-0.2527	-0.0134	0.2393	1174.8133	0.136862	-417.9787	-417.970495	-417.969551	-418.012389	29.724	
C	-0.0385734066	 1.4382878592	-0.2248551157	-0.494374
C	-0.1127017186	-0.0322373138	-0.0128679601	 0.354314
C	-1.1456224703	-0.9248766104	 0.0665024839	 0.042223
C	-0.476358553	-2.1609129945	 0.3168273237	-0.03498
N	 0.8229771293	-2.031374	 0.3681968422	-0.139887
O	 1.0580995236	-0.6724467813	 0.1589278373	-0.210442
C	-2.6071398534	-0.7042299651	-0.0370813391	-0.136733
C	-3.1937454339	 0.0900712794	-1.1499096766	-0.236353
N	-3.382522206	-1.3677520627	-1.1095245303	-0.312968
H	 0.5359631618	 1.6776316749	-1.1258723683	 0.150831
H	-1.041427265	 1.8550030661	-0.3258970677	 0.146354
H	 0.4584788879	 1.9261248354	 0.619937233	 0.153992
H	-0.9143762526	-3.1403297788	 0.4539730094	 0.137706
H	-3.1441901782	-0.704495193	 0.9098860373	 0.109123
H	-4.0937397587	 0.6738788259	-0.9800201221	 0.123539
H	-2.517127451	 0.50372269	-1.8923237496	 0.114252
H	-2.7343334853	-1.8034921213	-1.7624218675	 0.233404
50.9089	103.1207	156.985	162.0556	245.7934	310.7842	399.3651	476.1637	616.1053	642.412	689.1345	722.4106	842.4363	875.2938	906.9012	920.0493	960.3686	963.4461	1000.952	1012.1003	1064.6709	1101.9515	1142.3304	1170.9939	1174.1846	1224.0435	1257.1431	1266.4717	1303.7928	1355.6399	1410.2062	1448.3022	1476.2835	1482.9134	1508.0378	1519.403	1665.9576	3043.5072	3098.8039	3112.8668	3116.1769	3146.8304	3199.0264	3237.8969	3491.4315
CC1=C(C=NO1)C1CN1	Cc1c(cno1)[C@H]1CN1	
InChI=1S/C6H8N2O/c1-4-5(2-8-9-4)6-3-7-6/h2,6-7H,3H2,1H3	InChI=1S/C6H8N2O/c1-4-5(2-8-9-4)6-3-7-6/h2,6-7H,3H2,1H3/t6-/m1/s1
