14
gdb 11737	5.57193	1.33027	1.21697	2.1537	58.48	-0.2501	-0.0327	0.2174	959.4934	0.105457	-419.641701	-419.634307	-419.633363	-419.673792	26.927	
O	 0.1087486141	 1.3753848761	-0.2179881977	-0.40692
C	 0.0804180507	-0.0104511482	 0.076179225	-0.183385
C	-1.3199954958	-0.5156141486	 0.2257142571	 0.394242
C	-2.3659479484	-0.1922359861	 1.3076577791	-0.410142
C	-2.9153925201	-1.6309825961	 1.0621861456	 0.430652
O	-3.700338206	-2.3272584855	 1.629958828	-0.291322
C	-1.8899307918	-1.8650350462	-0.0480743439	-0.183402
O	-2.0768976761	-0.7640642885	-0.9636258461	-0.279001
H	-0.3309687588	 1.4990833813	-1.0664677622	 0.295648
H	 0.5942865585	-0.6064807441	-0.6918421893	 0.107171
H	 0.6218311023	-0.1321902453	 1.0198020587	 0.123953
H	-1.9712444915	-0.1027411909	 2.3241316752	 0.137895
H	-3.0259109089	 0.6477397671	 1.0864485457	 0.140614
H	-1.4488741382	-2.7752453251	-0.4380495952	 0.123997
73.7445	102.4229	190.8573	298.7181	391.9393	407.152	432.3893	472.1078	576.0353	662.9212	714.4361	768.609	867.0697	917.8675	970.6412	986.7398	1008.7562	1044.641	1074.0466	1114.1945	1183.0289	1189.7119	1212.0923	1276.7013	1367.071	1409.1523	1433.7322	1456.8616	1483.9045	1904.3588	3004.3868	3071.8156	3084.1199	3137.8273	3192.9488	3807.3278
OCC12CC(=O)C1O2	OC[C@]12CC(=O)[C@H]1O2	
InChI=1S/C5H6O3/c6-2-5-1-3(7)4(5)8-5/h4,6H,1-2H2	InChI=1S/C5H6O3/c6-2-5-1-3(7)4(5)8-5/h4,6H,1-2H2/t4-,5-/m1/s1
