17
gdb 70061	3.09569	1.6828	1.30448	2.2937	73.73	-0.2454	-0.0169	0.2285	990.0361	0.135876	-421.763919	-421.756556	-421.755612	-421.795453	28.919	
C	-0.0818381116	 1.5478870863	 0.1217701162	-0.49706
C	 0.1505345573	 0.0654315074	 0.0110538414	 0.376523
O	-0.7439868441	-0.771341451	 0.7362210309	-0.287206
C	 0.6553165745	-0.8084219971	 1.1123713965	-0.057556
C	 1.2930289015	-2.0270099433	 0.5068910299	-0.203592
C	 1.3321095936	-1.8436799389	-0.8128959296	 0.136102
C	 0.8434267833	-2.4661290814	-2.0993200517	-0.139913
O	-0.0208430153	-1.2981495909	-2.2635455809	-0.301721
C	 0.7419319516	-0.5438575109	-1.2622478815	 0.055438
H	 0.7985066548	 2.1069030152	-0.2117205406	 0.123419
H	-0.9280635833	 1.84693123	-0.5062555669	 0.138699
H	-0.3080636032	 1.8308118789	 1.1524900577	 0.13049
H	 0.8698777084	-0.4358085292	 2.1097291445	 0.099766
H	 1.4208614544	-2.9564083918	 1.0482393735	 0.11224
H	 1.5714155452	-2.5350688499	-2.9177559625	 0.109014
H	 0.2769511221	-3.3990032369	-2.0203427044	 0.127214
H	 1.3983540307	 0.1802341834	-1.7639040222	 0.078143
157.3985	183.6083	207.2621	250.4774	315.2495	369.9548	496.8052	533.2421	581.0805	671.2192	763.8959	774.7352	830.9026	853.7017	891.402	905.4407	942.8886	965.3625	991.7776	1014.3565	1028.1379	1067.5514	1103.9418	1123.0192	1138.2847	1220.4916	1251.1794	1264.7929	1296.0892	1323.0235	1335.2837	1410.2021	1433.6467	1483.1965	1494.9199	1510.4439	1712.2429	3009.1056	3018.9698	3037.8288	3085.6831	3100.9275	3125.3688	3159.3948	3208.1812
CC12OC1C=C1COC21	C[C@]12O[C@H]1[CH][C]1CO[C@@H]21	
InChI=1S/C7H8O2/c1-7-5(9-7)2-4-3-8-6(4)7/h2,5-6H,3H2,1H3	InChI=1S/C7H8O2/c1-7-5(9-7)2-4-3-8-6(4)7/h2,5-6H,3H2,1H3/t5-,6+,7-/m0/s1
