19
gdb 40573	4.21314	1.17876	1.11011	1.5907	78.3	-0.2285	0.0817	0.3102	1155.255	0.160221	-385.802112	-385.794884	-385.79394	-385.834151	29.114	
C	-0.1209711092	 1.3951357339	-0.1643246033	-0.272178
C	 1.2975920177	 0.9567122426	 0.0957704744	-0.271379
C	 0.1942064304	-0.0709420273	 0.010833583	 0.006621
C	-0.2559440999	-0.7976969692	 1.2466020641	 0.011105
C	-1.6183698612	-1.5040074513	 1.2985387087	-0.140657
C	-1.3458581331	-2.9119030563	 0.7408149548	 0.093071
O	 0.0197812925	-2.9706109618	 0.327756042	-0.291578
C	 0.3238416211	-2.2159983194	 1.5378982363	 0.041369
C	-1.0573668365	-2.6248083771	 2.1718805069	-0.154846
H	-0.6492638619	 1.9003427382	 0.6381668141	 0.106312
H	-0.3784964044	 1.7515515576	-1.1556268099	 0.110408
H	 2.0133805042	 1.0114105327	-0.7168270273	 0.111407
H	 1.7209735083	 1.1677188757	 1.0729615642	 0.10568
H	 0.1738034446	-0.681366126	-0.885593409	 0.095787
H	-0.1390943537	-0.1721399554	 2.1392011099	 0.069278
H	-2.6083785764	-1.0663592653	 1.3220161174	 0.088813
H	-2.0743301646	-3.541026559	 0.2471999115	 0.108468
H	 1.3312780438	-2.386520717	 1.9116581928	 0.083184
H	-1.3688673418	-3.0595608557	 3.1107466494	 0.099134
72.291	156.3781	165.218	299.7915	399.1679	510.9713	610.7807	757.4632	766.5378	768.3508	786.3717	804.5475	823.3115	838.8531	877.7374	900.5551	922.7513	924.0089	979.1586	995.1287	1006.7197	1025.9313	1033.9127	1057.1211	1061.8765	1077.3533	1089.7434	1145.0035	1152.8913	1172.3433	1192.3692	1199.6486	1223.1609	1228.1079	1232.0482	1305.9073	1317.1904	1371.3499	1436.4881	1470.3163	1504.7731	3044.0098	3125.6455	3130.5469	3144.7745	3170.3719	3196.3647	3203.7262	3207.0795	3219.5573	3223.1192
C1CC1C1C2C3OC1C23	C1CC1[C@H]1[C@H]2[C@H]3O[C@@H]1[C@@H]23	
InChI=1S/C8H10O/c1-2-3(1)4-5-6-7(4)9-8(5)6/h3-8H,1-2H2	InChI=1S/C8H10O/c1-2-3(1)4-5-6-7(4)9-8(5)6/h3-8H,1-2H2/t4-,5+,6+,7-,8+/m0/s1
