16
gdb 62751	2.59934	1.56163	1.27122	1.6608	66.92	-0.2482	0.0056	0.2538	1021.1032	0.121567	-474.979754	-474.971019	-474.970075	-475.012542	33.177	
C	 0.0370487711	 1.567433543	-0.0711129659	-0.457485
C	 0.1124891011	 0.0651025553	 0.0189534908	 0.370128
O	-1.0062674896	-0.5837113887	-0.5129621873	-0.475168
C	 1.3727328875	-0.7337357001	-0.1651678827	-0.076517
O	 2.5003235974	-0.0216163692	 0.4084249338	-0.267834
C	 1.9493660229	-0.1120899538	 1.6905705546	 0.37505
N	 2.4329806792	 0.1652128654	 2.8111091234	-0.556269
C	 0.6811879358	-0.7305685605	 1.20414062	 0.155935
O	-0.1681521461	-1.5774801146	 1.8690146113	-0.45131
H	 0.9771653939	 2.0324333544	 0.2306575201	 0.140234
H	-0.1773749528	 1.8547265882	-1.1050167778	 0.134023
H	-0.7691961249	 1.9474241051	 0.562967629	 0.129834
H	-1.3749481761	-1.150533335	 0.1777270771	 0.301287
H	 1.564964416	-1.4940928584	-0.9093348311	 0.133805
H	 3.3792189356	 0.5404851355	 2.728623768	 0.236065
H	 0.3257328892	-2.3378902466	 2.1970771068	 0.308222
120.0496	168.9881	202.1734	244.8878	265.3472	284.1741	302.2295	355.2245	404.3038	415.335	540.5034	571.3094	609.2408	701.1053	752.688	765.7774	864.0661	899.5738	922.3439	971.0907	979.8223	989.0508	1050.9163	1096.3233	1160.4007	1222.2628	1264.7249	1281.845	1328.3404	1376.2447	1415.761	1460.7854	1482.9003	1496.7134	1831.9687	3047.9761	3114.3247	3141.4137	3222.0817	3482.725	3758.7633	3796.0641
CC1(O)C2OC(=N)C12O	C[C@@]1(O)[C@H]2O[C]([NH])[C@@]12O	
InChI=1S/C5H7NO3/c1-4(7)2-5(4,8)3(6)9-2/h2,6-8H,1H3	InChI=1S/C5H7NO3/c1-4(7)2-5(4,8)3(6)9-2/h2,6-8H,1H3/t2-,4-,5-/m1/s1
