18
gdb 74183	2.44141	1.64757	1.06997	4.5139	79.94	-0.2327	-0.0254	0.2074	1128.6205	0.149313	-401.992377	-401.984413	-401.983469	-402.024759	31.037	
C	-0.0529251517	 1.4837700222	 0.0737927019	-0.484313
C	 0.0140240301	-0.0140238223	-0.0097555773	 0.322361
C	 0.0006107319	-0.6805859318	-1.1738926225	-0.278842
C	-0.0004128898	-2.155490978	-1.2826048037	 0.403314
O	 0.0119413531	-2.7393046186	-2.3547541096	-0.389148
N	-0.0459144913	-2.8417097957	-0.0897302498	-0.349566
C	 0.08966974	-2.2614324273	 1.2073225754	 0.021386
C	 1.3515797596	-1.5480996637	 1.6198362329	-0.309913
C	 0.0951971604	-0.7521732064	 1.2747643351	-0.140886
H	 0.8185873431	 1.883816162	 0.6066855509	 0.135558
H	-0.0971503105	 1.9424099087	-0.9164789955	 0.132767
H	-0.937494928	 1.8006797845	 0.6408617912	 0.133499
H	-0.0331810519	-0.1644302978	-2.1267171363	 0.105636
H	 0.0074894797	-3.8450429881	-0.1824528212	 0.246329
H	-0.4576871209	-2.7970656623	 1.976593033	 0.106677
H	 1.6475274957	-1.5887380793	 2.6621818781	 0.119227
H	 2.1638792497	-1.517637247	 0.9025619532	 0.129734
H	-0.4177096495	-0.2869764591	 2.1112845942	 0.09618
104.8732	151.8322	196.1679	233.664	296.4513	401.0249	460.3224	486.7855	495.9369	533.4855	588.9713	696.7021	738.9526	768.2193	813.6071	874.1769	902.0194	920.5036	968.3218	1015.2906	1044.0999	1053.906	1064.3249	1101.3362	1113.3994	1149.1133	1166.6578	1234.7993	1298.2541	1351.1693	1407.8657	1411.9602	1419.8362	1454.0245	1477.2925	1484.5502	1490.2749	1695.575	1773.313	3021.2307	3069.9134	3124.8551	3135.0525	3145.7139	3155.1824	3199.3414	3232.4157	3618.263
CC1=CC(=O)NC2CC12	CC1=CC(=O)N[C@H]2C[C@@H]12	
InChI=1S/C7H9NO/c1-4-2-7(9)8-6-3-5(4)6/h2,5-6H,3H2,1H3,(H,8,9)	InChI=1S/C7H9NO/c1-4-2-7(9)8-6-3-5(4)6/h2,5-6H,3H2,1H3,(H,8,9)/t5-,6-/m0/s1
