20
gdb 11502	4.75177	1.03807	0.90964	0.776	81.13	-0.2552	0.059	0.3141	1301.5978	0.175269	-311.826921	-311.81773	-311.816785	-311.860977	34.063	
C	 0.1397451481	 1.6071971943	-0.0186721617	-0.382474
C	 0.0464599342	 0.0683116903	 0.0050678931	-0.159036
C	 0.6386454405	-0.5972458568	-1.2646132831	-0.19893
C	-0.0922735422	-0.2480973311	-2.5443188183	 0.02788
C	 0.3475735386	 0.9030408751	-3.4172728577	-0.250895
C	 0.5562566693	-0.5172476796	-3.8788990863	-0.286352
C	 0.6896004901	-0.4694872272	 1.2034500101	 0.317521
C	 1.2424150663	-0.9067837605	 2.1777722216	-0.46406
H	 1.1846380889	 1.9283250541	-0.0746900542	 0.121069
H	-0.3926935414	 2.0112087155	-0.8827202229	 0.12448
H	-0.2945730521	 2.0331722105	 0.8895377711	 0.122718
H	-1.0186831373	-0.2026634322	 0.0485501342	 0.102463
H	 1.6963340048	-0.3177853931	-1.351723996	 0.100475
H	 0.619079222	-1.6836583136	-1.1176633656	 0.108698
H	-1.1655153222	-0.4234539706	-2.5040801525	 0.080065
H	-0.4110512618	 1.5004111908	-3.9113241717	 0.11041
H	 1.2220360993	 1.4661905011	-3.108489	 0.112218
H	 1.5697088875	-0.9056952126	-3.8769187871	 0.111969
H	-0.06081184	-0.8944061053	-4.6868347441	 0.11097
H	 1.7183500675	-1.295570429	 3.0435019013	 0.190811
55.4826	93.4673	122.7371	192.5377	223.7729	274.6709	302.4717	344.8108	430.1411	525.4397	538.4949	623.9777	632.1628	774.487	797.4174	818.8244	837.788	885.4687	924.3474	940.1163	980.7568	1043.2504	1061.3606	1078.5845	1096.8779	1126.3532	1141.3261	1182.0424	1198.1033	1228.2447	1261.5061	1301.3341	1338.2113	1361.5114	1403.5142	1416.1274	1467.8757	1482.7249	1493.6316	1498.3823	1507.1622	2232.8374	2995.7766	3025.1805	3044.7894	3063.7338	3115.5644	3124.3344	3127.9962	3130.0094	3133.605	3205.8214	3221.0399	3505.9386
CC(CC1CC1)C#C	C[C@@H](CC1CC1)C#C	
InChI=1S/C8H12/c1-3-7(2)6-8-4-5-8/h1,7-8H,4-6H2,2H3	InChI=1S/C8H12/c1-3-7(2)6-8-4-5-8/h1,7-8H,4-6H2,2H3/t7-/m1/s1
