14
gdb 130053	2.62764	1.49069	0.95302	4.6324	69.57	-0.2188	-0.0348	0.1839	1140.8267	0.102907	-466.231842	-466.223796	-466.222852	-466.264328	29.943	
N	-0.0036459145	 1.3176229257	 0.1449576344	-0.580234
C	-0.0030352779	-0.0467652103	 0.0499147914	 0.437284
N	-1.1007100801	-0.7652969576	-0.0298202914	-0.319225
N	-0.588617223	-2.0593823235	-0.0228575464	-0.080103
C	-1.3917511475	-3.191554826	-0.0046406424	 0.177141
O	-2.590439114	-3.1925354846	-0.0535953215	-0.270029
C	 0.7908276433	-1.9900962203	 0.0285510395	 0.454942
N	 1.6128678253	-3.0847076968	 0.0925343209	-0.599396
N	 1.1896836234	-0.7457584874	 0.0757769473	-0.381034
H	 0.8434820095	 1.7623711223	-0.1714267862	 0.264126
H	-0.8559536166	 1.7667478438	-0.1528044227	 0.267265
H	-0.7787453456	-4.1093057142	 0.0693743032	 0.084069
H	 1.3578903181	-3.8857175832	-0.4647113252	 0.268367
H	 2.5868619196	-2.832824258	 0.0012231191	 0.276828
110.9336	189.3377	217.8351	224.0204	304.9075	316.7895	372.8675	426.9585	455.2849	542.3063	582.6588	591.3733	671.3965	724.372	729.2825	780.2687	899.1322	1005.3769	1030.9495	1110.2156	1140.9828	1155.8554	1357.7877	1406.8178	1461.6176	1477.701	1588.2318	1611.0641	1668.6016	1674.2513	1834.9854	2958.0188	3576.2546	3590.0408	3679.1972	3703.4131
NC1=NN(C=O)C(N)=N1	Nc1nn(C=O)c(N)n1	
InChI=1S/C3H5N5O/c4-2-6-3(5)8(1-9)7-2/h1H,(H4,4,5,6,7)	InChI=1S/C3H5N5O/c4-2-6-3(5)8(1-9)7-2/h1H,(H4,4,5,6,7)
