20
gdb 10233	3.12132	1.15676	0.89146	4.1959	68.58	-0.2441	0.07	0.314	1308.977	0.175184	-423.252644	-423.242627	-423.241683	-423.287799	34.879	
C	-0.0021543601	 1.374061838	-0.1037904106	-0.234784
O	 0.0236428134	-0.0358512308	-0.0906281372	-0.241456
C	-1.2667069181	-0.6173334133	 0.0152491232	-0.070919
C	-1.1469354979	-2.1404050416	-0.0343252813	-0.031583
C	-2.5323064644	-2.7684586084	 0.1270310555	-0.090541
O	-2.3650387485	-4.1681473249	 0.2888480722	-0.418141
C	-0.466899993	-2.6258579134	-1.3275075327	-0.048423
O	 0.9153680903	-2.3438201286	-1.3758963164	-0.43379
H	 1.0311061804	 1.720003596	-0.1782800136	 0.134566
H	-0.5737860463	 1.761996987	-0.9606884932	 0.110973
H	-0.4475572867	 1.7746725737	 0.8192674662	 0.111825
H	-1.7421443049	-0.2932504542	 0.9560850854	 0.090704
H	-1.9036100566	-0.2587276979	-0.8128685731	 0.08806
H	-0.5289701829	-2.4689531124	 0.8104181579	 0.101873
H	-3.0415623534	-2.3280278873	 0.999732975	 0.085425
H	-3.1490093311	-2.5416447098	-0.7589981354	 0.086889
H	-3.2346523139	-4.5778909758	 0.2963295145	 0.288618
H	-0.5737962192	-3.7116396562	-1.3944476219	 0.120283
H	-1.0023865794	-2.1895145172	-2.1922121819	 0.06459
H	 1.0092812322	-1.4172699027	-1.1202608128	 0.285831
78.1482	93.6739	116.0509	140.5537	168.8629	228.7953	234.5401	262.6761	329.0467	359.5035	383.8607	471.7246	532.1004	569.2502	852.6829	919.8458	953.6983	970.9166	1063.5331	1072.9903	1100.3886	1124.464	1153.3316	1155.3509	1186.1227	1216.9807	1235.6859	1246.6413	1262.8044	1287.2773	1321.6313	1358.4684	1396.9282	1429.3928	1453.189	1469.5762	1481.8346	1485.7581	1501.4823	1516.2058	1521.2119	1529.7578	2921.4162	2943.742	2957.7954	2975.5079	2980.9779	2985.64	3029.2732	3050.1312	3095.1987	3122.3857	3762.064	3835.7171
COCC(CO)CO	COCC(CO)CO	
InChI=1S/C5H12O3/c1-8-4-5(2-6)3-7/h5-7H,2-4H2,1H3	InChI=1S/C5H12O3/c1-8-4-5(2-6)3-7/h5-7H,2-4H2,1H3
