16
gdb 6677	8.4822	0.7416	0.68779	2.7405	64.4	-0.2579	0.0208	0.2786	1543.4114	0.128639	-417.088921	-417.079171	-417.078227	-417.126732	31.369	
N	-0.106129124	 1.3139165313	 0.0102409164	-0.526295
C	 0.0528867621	-0.0396311876	 0.0010578793	 0.417954
O	 1.1475391359	-0.5713748093	-0.0125218285	-0.358399
C	-1.2481073715	-0.8358002771	 0.0087984773	-0.33218
C	-0.9767096833	-2.3312026515	-0.0020817635	-0.068578
O	-2.2480601609	-2.9863564249	 0.006300061	-0.189328
C	-2.2188595071	-4.3318004791	 0.0003631175	 0.127574
N	-3.2978100746	-4.9874153477	 0.0066483225	-0.441063
H	 0.7173055492	 1.8927621628	 0.0056303243	 0.263799
H	-1.0097830752	 1.7526748695	 0.0213753608	 0.262065
H	-1.840199135	-0.5731508794	 0.8933457874	 0.137159
H	-1.8565930131	-0.5633162606	-0.8615358172	 0.137191
H	-0.4047580627	-2.6098739003	-0.8940415543	 0.12687
H	-0.387989089	-2.619663679	 0.8757413123	 0.126842
H	-1.2022751458	-4.7498590637	-0.0102087043	 0.088042
H	-3.0949737148	-5.9849677534	 0.0005533091	 0.228347
15.9042	31.8651	67.9253	105.1582	110.404	135.1733	255.718	326.0885	480.1819	506.6222	577.6981	640.9853	664.5613	812.9122	826.0159	860.9363	1006.8676	1045.8725	1071.7532	1079.4568	1114.9654	1142.4615	1212.4514	1259.4739	1299.0817	1309.79	1382.639	1415.2568	1436.1781	1472.8154	1513.4672	1618.8594	1749.3491	1792.4958	3017.244	3036.9444	3043.8665	3069.5826	3092.4681	3516.4194	3605.5771	3742.2928
NC(=O)CCOC=N	NC(=O)CCO[CH][NH]	
InChI=1S/C4H8N2O2/c5-3-8-2-1-4(6)7/h3,5H,1-2H2,(H2,6,7)	InChI=1S/C4H8N2O2/c5-3-8-2-1-4(6)7/h3,5H,1-2H2,(H2,6,7)
