18
gdb 79862	2.82886	1.74256	1.25113	3.254	70.98	-0.241	0.0627	0.3037	1002.4536	0.149117	-439.021953	-439.014674	-439.01373	-439.053178	30.02	
O	 0.124165477	 1.4144368265	-0.1093866653	-0.456895
C	 0.0859395141	 0.0252832672	-0.0456558154	 0.183406
C	 0.0274367247	-0.6605376734	 1.3397781199	-0.157739
N	-1.4071991726	-0.1499832637	 1.4655818219	-0.169072
C	-2.1546153796	-1.1802931836	 2.2394141419	-0.162665
C	-1.6059897615	-2.5158663478	 1.6902402149	-0.320433
C	-0.6198154837	-1.9302118683	 0.6763776935	 0.431484
O	 0.0901907789	-2.7925875584	-0.1550864616	-0.48506
C	-1.2885223801	-0.6851980413	 0.0356641019	-0.122252
H	-0.5237873959	 1.7197773637	 0.5408748897	 0.288824
H	 0.7991175411	-0.3818310304	-0.760491533	 0.104064
H	 0.7233831326	-0.5994357442	 2.180181947	 0.07462
H	-1.9634008852	-1.0355405423	 3.3062540779	 0.109216
H	-3.2265189536	-1.051098784	 2.0671277724	 0.111386
H	-1.1023995668	-3.1256759613	 2.4488763361	 0.094376
H	-2.3626068554	-3.1381864281	 1.2036520376	 0.110617
H	 0.5131287066	-3.4659415153	 0.3880891831	 0.28605
H	-2.1341844307	-0.6528144254	-0.6546751826	 0.080072
202.1593	226.6499	257.2257	290.3572	337.7886	348.4592	476.8528	545.8258	557.3221	626.8452	723.5127	741.3807	754.6502	838.2529	851.3571	866.8748	900.5607	920.8189	972.3579	1023.7352	1051.5962	1096.1397	1100.3834	1112.0914	1121.5013	1149.4961	1196.6411	1199.9466	1214.0725	1241.2534	1257.553	1268.0743	1295.2248	1314.2973	1340.9349	1388.3154	1458.8769	1493.2403	1511.9515	3039.0603	3061.2331	3084.7827	3085.2875	3096.9135	3109.2111	3142.0118	3750.4432	3811.1702
OC1C2N3CCC2(O)C13	O[C@H]1[C@H]2N3CC[C@@]2(O)[C@H]13	
InChI=1S/C6H9NO2/c8-3-4-6(9)1-2-7(4)5(3)6/h3-5,8-9H,1-2H2	InChI=1S/C6H9NO2/c8-3-4-6(9)1-2-7(4)5(3)6/h3-5,8-9H,1-2H2/t3-,4+,5-,6-
