14
gdb 30985	2.81912	1.32868	0.95206	3.8592	60.88	-0.2033	0.0387	0.2419	1167.37	0.099142	-510.988053	-510.97913	-510.978186	-511.023044	30.829	
C	 0.3414230615	 1.0168929745	 0.3663448123	-0.254838
O	-0.2970784668	 0.2861092899	-0.6924549501	-0.262681
C	-1.3253505608	-0.4886466979	-0.309203216	 0.234097
C	-1.3855030916	-1.7320801957	 0.1834201966	 0.26902
O	-0.4267174849	-2.5762648305	 0.5862441351	-0.418842
O	-2.7050078881	-2.0950942613	 0.3904552692	-0.237367
C	-3.5226415474	-1.0421128949	-0.0114758755	 0.490134
O	-4.7210962812	-1.0855145605	-0.0113453232	-0.394142
N	-2.6648252687	-0.0343746146	-0.3751376966	-0.429358
H	 1.1310964127	 1.6057934545	-0.1027643919	 0.140778
H	-0.3689005047	 1.6853864385	 0.8662436132	 0.127606
H	 0.7757066531	 0.3301586159	 1.1000184373	 0.141875
H	-0.6062429871	-3.4572560042	 0.2323666575	 0.314985
H	-2.974757946	 0.7813174063	-0.8751869779	 0.278733
21.1583	127.1208	143.6064	179.3674	208.9325	255.1347	307.8708	360.6523	405.9068	475.5737	588.8406	630.8883	676.6059	689.9802	758.429	840.7029	942.6522	1003.3306	1054.7408	1171.5834	1203.9067	1220.714	1266.3256	1314.3893	1325.5828	1418.5606	1487.2858	1491.1279	1500.4988	1820.7328	1911.2709	3024.5858	3098.2411	3143.9767	3682.5124	3765.4954
COC1=C(O)OC(=O)N1	COc1c(O)oc(=O)[nH]1	
InChI=1S/C4H5NO4/c1-8-2-3(6)9-4(7)5-2/h6H,1H3,(H,5,7)	InChI=1S/C4H5NO4/c1-8-2-3(6)9-4(7)5-2/h6H,1H3,(H,5,7)
