16
gdb 44868	3.44716	1.69097	1.54685	5.0262	66.92	-0.2544	0.0062	0.2605	885.295	0.127784	-437.888683	-437.882629	-437.881685	-437.918934	25.365	
O	-0.030227951	 0.0320968038	 0.0362900698	-0.340389
C	 0.0188066224	 1.2225185654	 0.0199167511	 0.47865
O	-1.097863104	 2.028419751	 0.0577510254	-0.246515
C	-0.6071966139	 3.4047964929	 0.0097207918	 0.079507
C	 0.5841849022	 3.2624225252	-0.9480520268	-0.279598
C	 1.2188552408	 2.1870258776	-0.0433666373	-0.134171
N	 1.2440329132	 2.7374820396	 1.3512307792	-0.101425
C	 1.4036176287	 4.1971207124	 1.4660042988	-0.263323
C	 0.0410276668	 3.6145092734	 1.3748685562	-0.023139
H	-1.4357551541	 4.0524412731	-0.2680144085	 0.100288
H	 0.2715976888	 2.8679327438	-1.916443891	 0.131738
H	 1.1721473299	 4.1646985169	-1.1054382366	 0.118919
H	 2.1568988708	 1.7177002526	-0.3280319385	 0.105369
H	 1.7613166038	 4.5018671888	 2.4448128797	 0.133699
H	 1.8158237174	 4.7768400345	 0.6477221494	 0.12266
H	-0.6005282717	 3.5438388389	 2.2474671672	 0.117729
164.7787	294.8786	386.3533	458.2125	506.7296	522.4604	584.9616	701.7792	741.1194	762.2903	809.8721	833.0278	875.5065	902.5485	932.9901	949.8264	977.1874	986.252	1010.6718	1057.4431	1086.7821	1100.6004	1112.8721	1150.8904	1158.8605	1215.2398	1243.882	1270.3898	1282.1783	1307.0502	1326.6703	1376.5165	1484.9201	1530.3357	1910.6424	3096.836	3130.1346	3150.3102	3153.8147	3162.0809	3167.8224	3212.9461
O=C1OC2CC1N1CC21	O=C1O[C@@H]2C[C@H]1N1C[C@@H]21	
InChI=1S/C6H7NO2/c8-6-3-1-5(9-6)4-2-7(3)4/h3-5H,1-2H2	InChI=1S/C6H7NO2/c8-6-3-1-5(9-6)4-2-7(3)4/h3-5H,1-2H2/t3-,4+,5-,7?/m1/s1
