22
gdb 121307	2.77248	1.03147	0.85196	3.5337	82.72	-0.2347	0.0346	0.2693	1458.8709	0.195677	-404.40889	-404.39934	-404.398396	-404.443934	35.078	
C	-0.1078326741	 1.6087689418	 0.3191673366	-0.382825
C	 0.0183116789	 0.1035412443	 0.0706715675	-0.170715
C	 0.7200265222	-0.6270865902	 1.2217040655	-0.178113
C	 0.8330058968	-2.1545634673	 1.0261416606	-0.116202
C	 1.6547535853	-2.8612751717	 2.1247788719	-0.23724
C	 0.6049091658	-3.3591573175	 3.1446955041	-0.163961
N	-0.5788835389	-3.5043180011	 2.3181033713	-0.294317
C	-0.5507834076	-2.8175326252	 1.1341808579	 0.407326
O	-1.4706961089	-2.7372130933	 0.3458956995	-0.38755
H	 0.8737250225	 2.0764331376	 0.4595801521	 0.107366
H	-0.5970606979	 2.1099430865	-0.5217677003	 0.112962
H	-0.7015347092	 1.8141758648	 1.2172571406	 0.111545
H	-0.968673225	-0.3399405713	-0.090186359	 0.135303
H	 0.5827483111	-0.0704904434	-0.8552063606	 0.091245
H	 1.7343443954	-0.2237521501	 1.3443567705	 0.091154
H	 0.1955650501	-0.4169105382	 2.1650179369	 0.093591
H	 1.2366413289	-2.3495369344	 0.0281867357	 0.095312
H	 2.1836815336	-3.7209137611	 1.7032490856	 0.111965
H	 2.3978692487	-2.208569316	 2.5890447435	 0.105072
H	 0.8920477557	-4.3103655552	 3.6042063978	 0.112336
H	 0.4482919344	-2.6328646253	 3.955090834	 0.107282
H	-1.4465120577	-3.8942630539	 2.6509286982	 0.248461
61.6724	82.3886	115.6539	159.6936	183.7169	238.299	253.3626	347.0907	392.6871	479.0556	527.2676	649.0431	692.6359	732.5166	747.3491	813.0535	843.0429	901.5504	906.7861	935.7407	985.0002	1031.3653	1051.4165	1073.8758	1084.1723	1127.1264	1149.0872	1209.1763	1219.2774	1248.9618	1266.1295	1272.3854	1313.1772	1326.8449	1342.9584	1355.3962	1369.5966	1398.0861	1412.9324	1448.7289	1485.8598	1493.9886	1495.6543	1499.7348	1513.2294	1538.2191	1814.0862	2997.0846	3001.3863	3021.0253	3026.1087	3035.4756	3053.69	3064.9089	3073.1643	3078.8096	3100.0112	3104.2468	3107.9337	3639.3616
CCCC1CCNC1=O	CCC[C@H]1CCNC1=O	
InChI=1S/C7H13NO/c1-2-3-6-4-5-8-7(6)9/h6H,2-5H2,1H3,(H,8,9)	InChI=1S/C7H13NO/c1-2-3-6-4-5-8-7(6)9/h6H,2-5H2,1H3,(H,8,9)/t6-/m0/s1
