13
gdb 5295	5.16785	1.54323	1.19813	3.0276	60.58	-0.2399	-0.0209	0.219	921.7988	0.097114	-398.659452	-398.652618	-398.651674	-398.690883	25.297	
N	-0.0458122533	 1.35370088	 0.0032910236	-0.540025
C	 0.0275540661	-0.0145966299	-0.1292632315	 0.300869
O	 1.0791356431	-0.5932559697	-0.3298006818	-0.354708
C	-1.2635770796	-0.7371169596	-0.052594415	 0.162464
C	-2.5399896597	-0.2574462347	-0.1229637922	-0.102183
O	-3.4346301117	-1.2671268911	-0.0395477254	-0.143673
C	-2.7183862351	-2.42378922	 0.0854823991	 0.006706
C	-1.3902251262	-2.1625608442	 0.0771811327	-0.271557
H	 0.8418784697	 1.8254435368	 0.0863156313	 0.259822
H	-0.8182564353	 1.7647692083	 0.5011708759	 0.253791
H	-2.9581073797	 0.7263431348	-0.2621837471	 0.1441
H	-3.3038384582	-3.3242115123	 0.1661662503	 0.145162
H	-0.5744221301	-2.8624812284	 0.1514305602	 0.139234
66.4097	182.3045	195.3603	394.7117	396.3188	498.7938	530.1602	621.7517	628.7084	667.1655	745.4698	772.2795	814.9277	873.1368	893.4066	972.5897	1034.0681	1092.0091	1104.9056	1188.3045	1218.0601	1263.8604	1370.3567	1418.3569	1541.0762	1607.9817	1621.1053	1783.8114	3269.066	3272.8088	3294.3909	3584.2661	3710.0763
NC(=O)C1=COC=C1	NC(=O)c1cocc1	
InChI=1S/C5H5NO2/c6-5(7)4-1-2-8-3-4/h1-3H,(H2,6,7)	InChI=1S/C5H5NO2/c6-5(7)4-1-2-8-3-4/h1-3H,(H2,6,7)
