20
gdb 78862	3.67419	1.39049	1.24495	1.7029	82.85	-0.2345	0.0824	0.3168	1090.9956	0.171374	-365.929876	-365.922263	-365.921319	-365.96148	31.172	
C	-0.22600982	 1.3844310399	-0.0137297128	-0.417199
C	 0.0448719696	-0.1116179505	 0.0895086707	 0.012947
C	 1.2409894258	-0.5695655094	-0.7534813685	-0.04587
C	 2.1818490667	-0.4189187723	 0.3790067053	-0.052924
C	 0.9138208445	-0.5327065985	 1.3156769109	-0.191238
C	 1.0646824406	-2.0283865784	 1.0926258394	 0.44805
C	 1.4559179811	-3.0947113676	 2.0541234022	-0.358865
C	 0.135850574	-3.1772829723	 1.2943480437	-0.342179
N	 1.8756188037	-1.7900337775	-0.1275946005	-0.197472
H	 0.6915516608	 1.9643272167	 0.1354467543	 0.117394
H	-0.6299361004	 1.646526722	-0.9977944078	 0.115991
H	-0.9547046345	 1.7032007316	 0.7391768346	 0.114718
H	-0.884624931	-0.6810802247	-0.031647876	 0.070287
H	 1.4142096782	-0.4344502265	-1.8139378156	 0.093756
H	 3.1823047619	-0.0216236982	 0.4839940079	 0.097058
H	 0.7563911185	-0.0880730184	 2.297382003	 0.070655
H	 2.2501054884	-3.7697543837	 1.7536630174	 0.123274
H	 1.4222437778	-2.8755983167	 3.1165098189	 0.110805
H	-0.785589703	-3.0130510384	 1.8445023493	 0.109786
H	 0.0632231972	-3.9102046373	 0.4979223337	 0.121026
146.3167	208.6319	220.3644	243.2812	290.5349	333.6954	460.0225	549.237	596.3152	741.8254	768.3735	786.0561	805.4246	826.8143	864.2426	881.6385	903.6851	926.6703	946.3187	971.0221	983.5068	1017.9346	1031.6908	1045.2236	1066.5526	1073.5592	1084.0679	1123.5623	1142.1631	1160.3594	1183.9872	1187.946	1209.2052	1254.7694	1278.2334	1324.7229	1374.568	1394.5757	1410.628	1451.9031	1494.4903	1499.0225	1506.2345	3026.3279	3031.3831	3092.7943	3097.6676	3124.9148	3125.3056	3128.7378	3190.7514	3207.3604	3208.8167	3221.2009
CC1C2C3C1C1(CC1)N23	C[C@H]1[C@H]2[C@H]3[C@@H]1C1(CC1)N23	
InChI=1S/C8H11N/c1-4-5-7-6(4)9(7)8(5)2-3-8/h4-7H,2-3H2,1H3	InChI=1S/C8H11N/c1-4-5-7-6(4)9(7)8(5)2-3-8/h4-7H,2-3H2,1H3/t4-,5-,6+,7-,9?/m1/s1
