22
gdb 117343	2.50882	0.96042	0.7825	2.3208	81.5	-0.2423	0.0671	0.3093	1585.3864	0.191397	-441.511631	-441.50065	-441.499706	-441.548571	38.9	
C	-0.0138117009	 0.1732654307	-1.6476665287	-0.393121
C	 0.0590269554	-0.5286666754	-0.3051776009	-0.023283
O	-1.0220492158	-1.476515961	-0.2539950683	-0.252502
C	-1.1186991266	-2.2025668977	 0.8723483959	 0.487032
N	-0.3244087471	-2.0648366869	 1.8504535626	-0.590731
O	-2.1333354204	-3.0877411871	 0.8407391812	-0.282428
C	-3.0365438754	-3.1609471274	-0.2924916039	 0.150644
C	-3.6324663278	-4.5613547438	-0.2443640725	-0.39155
C	-4.0901312127	-2.0613793285	-0.1971665127	-0.394361
H	 0.7977028316	 0.902656072	-1.7266532192	 0.123702
H	 0.0848466888	-0.5412558641	-2.470018362	 0.126588
H	-0.9639952674	 0.7027732023	-1.7633625524	 0.126457
H	 1.0033321745	-1.0642976665	-0.168974543	 0.12499
H	-0.0425337965	 0.1678461909	 0.5324848941	 0.125173
H	-0.578341448	-2.7119912732	 2.5930077908	 0.223186
H	-2.4513735003	-3.0351644859	-1.2070780821	 0.101404
H	-4.1899177221	-4.7106742783	 0.6854975413	 0.126169
H	-4.3172631447	-4.7083015825	-1.0848270224	 0.11755
H	-2.8463466499	-5.3187997216	-0.299753702	 0.125298
H	-4.7894400867	-2.1357801178	-1.0361793106	 0.115998
H	-4.6577661343	-2.1561403422	 0.7339374435	 0.123407
H	-3.6236328137	-1.0745673159	-0.2271874887	 0.130378
49.9947	67.5438	85.6453	120.972	148.0128	213.4365	236.179	260.7375	269.8894	323.32	367.2993	404.0182	449.9031	544.3044	642.7136	736.4531	801.701	821.7184	824.9645	889.7405	924.579	931.8993	951.1828	1020.5031	1105.0466	1123.5044	1132.8356	1144.3375	1158.8768	1185.5408	1201.8315	1289.7034	1338.0884	1364.8444	1378.7503	1399.5012	1409.8072	1416.0086	1436.8605	1480.6952	1486.0065	1486.9639	1494.2464	1496.8657	1510.5078	1522.9223	1741.1968	3040.3241	3044.921	3045.1402	3057.3538	3076.1127	3093.7496	3109.4994	3120.2774	3121.0164	3123.7768	3124.5453	3134.2945	3530.887
CCOC(=N)OC(C)C	CCO[C]([NH])OC(C)C	
InChI=1S/C6H13NO2/c1-4-8-6(7)9-5(2)3/h5,7H,4H2,1-3H3	InChI=1S/C6H13NO2/c1-4-8-6(7)9-5(2)3/h5,7H,4H2,1-3H3
