19
gdb 112524	2.82739	1.02475	0.91766	3.218	77.02	-0.244	0.0109	0.2548	1335.7521	0.15875	-419.190683	-419.181175	-419.18023	-419.225714	34.186	
C	-0.1149794374	 1.5612813208	 0.1207005786	-0.342877
N	-0.0559687499	 0.1131813151	 0.2092503181	-0.095783
C	-0.9763347863	-0.5882930124	 1.1413794101	 0.052532
C	-2.1715564819	-1.2244935303	 0.4439172813	-0.079315
O	-2.9231897745	-0.2644362234	-0.2795029438	-0.417757
C	 0.1931933771	-1.5052127591	 1.5794044787	-0.295576
C	 1.1220702601	-0.4713849995	 0.8813269511	-0.10051
C	 2.1730598602	-0.9651632569	-0.0088737961	 0.291395
N	 3.0032983033	-1.3653989268	-0.7061902979	-0.323574
H	 0.6375592736	 1.92103632	-0.5882035298	 0.136013
H	-1.1022094643	 1.8612565269	-0.2390246646	 0.133807
H	 0.0574271975	 2.0577520999	 1.0931833272	 0.100758
H	-1.3196242369	 0.0704116992	 1.953772502	 0.074446
H	-1.8189433395	-2.0311376683	-0.2159921075	 0.093973
H	-2.8490076161	-1.6661591179	 1.1832803814	 0.111848
H	-2.3881807674	-0.0164754753	-1.041196271	 0.293716
H	 0.3551685066	-1.6417690093	 2.6473698977	 0.126236
H	 0.1903360907	-2.4751684699	 1.0797635005	 0.132005
H	 1.580651985	 0.2127736374	 1.6126195039	 0.108663
42.5112	85.9998	142.8075	181.6574	209.696	240.1826	285.2539	322.6753	394.8674	413.4564	480.5122	538.6987	561.1296	650.151	787.537	837.0475	900.522	982.9843	1005.6558	1026.0965	1066.3318	1086.9576	1102.0145	1139.7696	1152.4209	1194.463	1211.0821	1240.5842	1258.1158	1275.4429	1301.7969	1347.9677	1376.0308	1402.7204	1423.2483	1449.2001	1486.3683	1491.9189	1497.0817	1502.398	2356.8427	2941.8955	2975.6581	2985.1496	2997.9573	3071.8313	3073.1078	3093.5227	3122.8288	3157.1722	3811.8685
CN1C(CO)CC1C#N	CN1[C@@H](CO)C[C@H]1C#N	
InChI=1S/C6H10N2O/c1-8-5(3-7)2-6(8)4-9/h5-6,9H,2,4H2,1H3	InChI=1S/C6H10N2O/c1-8-5(3-7)2-6(8)4-9/h5-6,9H,2,4H2,1H3/t5-,6+/m0/s1
