19
gdb 100603	2.24326	1.07583	0.87862	1.5651	76.96	-0.2485	-0.0192	0.2294	1409.7999	0.157948	-456.37647	-456.366277	-456.365333	-456.412225	35.612	
C	-1.1498985217	 0.951614746	 1.0264356049	-0.251356
O	-0.3891780671	 0.0585606654	 0.2299586903	-0.248418
C	-1.1660228156	-0.7002462779	-0.6810948964	 0.017494
C	-0.2589005104	-1.1473699947	-1.8270489201	-0.403645
C	-1.8099957732	-1.9335923289	-0.023249195	 0.378739
O	-2.7578638048	-2.5085531928	-0.516841394	-0.363892
N	-1.1800756025	-2.3393190749	 1.1321517508	-0.295046
C	-1.5525185591	-3.4522194291	 1.8675384835	 0.099041
N	-0.9195314326	-3.7640645046	 2.9236025036	-0.460677
H	-0.4463376112	 1.4835958026	 1.6703105803	 0.137207
H	-1.6866362627	 1.6796859358	 0.4022491165	 0.120623
H	-1.8805035905	 0.4246198153	 1.6563572525	 0.12031
H	-1.9942200795	-0.0983218051	-1.079579806	 0.100591
H	 0.5822730907	-1.7308965999	-1.4412764765	 0.131417
H	-0.8242018573	-1.7642177753	-2.5292606396	 0.145149
H	 0.1367145214	-0.2737142697	-2.3502899408	 0.12947
H	-0.3947699741	-1.7908569028	 1.4581601821	 0.273082
H	-2.4059552477	-3.9693323956	 1.4237769138	 0.13733
H	-1.3196504221	-4.6040775438	 3.33784236	 0.232581
54.1604	90.3196	137.3606	150.8326	184.0178	199.0074	232.4225	254.0411	284.0721	312.0803	462.1214	472.039	545.3525	628.4518	728.413	760.7428	836.1373	867.8693	946.8448	1017.3011	1078.0648	1092.2219	1111.1717	1121.6	1143.033	1184.5446	1206.7674	1236.7773	1304.7745	1323.6264	1360.2956	1393.9093	1400.0519	1476.6958	1486.7049	1490.6121	1495.5109	1500.0383	1512.3743	1727.4299	1800.3804	2992.6766	3019.0404	3047.9369	3050.6275	3118.1828	3125.7602	3126.5948	3141.0732	3504.6818	3594.23
COC(C)C(=O)NC=N	CO[C@@H](C)C(=O)NC=N	
InChI=1S/C5H10N2O2/c1-4(9-2)5(8)7-3-6/h3-4H,1-2H3,(H2,6,7,8)	InChI=1S/C5H10N2O2/c1-4(9-2)5(8)7-3-6/h3-4H,1-2H3,(H2,6,7,8)/t4-/m0/s1
