17
gdb 19618	4.69633	1.9764	1.83436	1.7386	71.41	-0.2319	0.087	0.3189	782.5676	0.143778	-326.635088	-326.62898	-326.628035	-326.664941	25.319	
C	 0.0589902981	 1.450073025	 0.0052801288	-0.356062
C	 1.3361334781	 0.6245571629	-0.0458508691	-0.341435
C	-0.0015813984	-0.0432578516	-0.0181666	 0.445395
C	-0.663466588	-0.9077360989	 1.0281214211	-0.139679
C	-1.7025727957	-1.3532918357	 0.0698912593	-0.036931
C	-0.6936396245	-0.9230575529	-1.0714239507	-0.193105
C	-0.0351958392	-2.2900327907	-0.8117241324	-0.145868
N	-0.6913485587	-2.3389463855	 0.5406609174	-0.156245
H	-0.1793924454	 1.963117883	 0.9318702999	 0.114357
H	-0.2293401991	 1.9945068109	-0.8884409805	 0.113237
H	 1.8965092937	 0.6184506504	-0.9758398258	 0.112006
H	 1.9536878533	 0.586580044	 0.8458233152	 0.115395
H	-0.7225325702	-0.7646503554	 2.0993839254	 0.095743
H	-2.774391599	-1.4831857608	 0.1388639831	 0.096864
H	-0.9184027998	-0.5424792304	-2.0664439574	 0.072343
H	-0.4487188326	-3.1003743781	-1.417434365	 0.104912
H	 1.0596413274	-2.3414457963	-0.8072966494	 0.099074
176.2532	243.9159	271.4076	451.6968	494.8777	598.2907	745.9205	755.1233	777.9194	788.2271	825.303	881.4087	919.3032	925.2687	939.8395	956.8626	976.6831	979.9012	1015.0543	1029.3627	1051.1975	1072.6616	1077.7103	1137.8459	1156.9176	1182.8674	1185.8501	1192.7096	1218.6465	1259.3865	1290.7039	1315.4352	1412.174	1462.8124	1502.7261	1511.2069	3036.6501	3103.3872	3120.364	3124.2947	3128.9464	3195.065	3197.7882	3208.9175	3212.3725
C1CC11C2C3C1CN23	C1CC21[C@H]1[C@H]3[C@@H]2CN13	
InChI=1S/C7H9N/c1-2-7(1)4-3-8-5(4)6(7)8/h4-6H,1-3H2	InChI=1S/C7H9N/c1-2-7(1)4-3-8-5(4)6(7)8/h4-6H,1-3H2/t4-,5+,6+,8?/m0/s1
