14
gdb 22908	2.37393	1.60661	1.07517	4.1801	62.7	-0.2614	-0.069	0.1923	1068.9586	0.100482	-510.941254	-510.933167	-510.932222	-510.974383	29.356	
O	-0.0273026291	 1.2937294918	-0.1898599312	-0.337879
N	 0.0252382288	-0.0785371972	-0.2061586998	-0.20798
C	-1.0942169833	-0.6512120233	 0.0113377257	 0.195085
C	-1.1971925187	-2.1528446043	 0.0771966049	 0.018917
O	-0.8512626523	-2.6421402878	 1.366242542	-0.425676
C	-2.7070428328	-2.3526539112	-0.106297313	-0.091867
O	-3.3425153676	-1.1093672034	 0.2431503765	-0.230223
C	-2.4587510928	-0.0736493236	 0.2660872345	 0.424113
O	-2.786827942	 1.0576967419	 0.4677789084	-0.326456
H	 0.8835385034	 1.5433987888	-0.3883638682	 0.319945
H	-0.6131695337	-2.6476907902	-0.7076438961	 0.097766
H	 0.0376110778	-2.326966451	 1.5664320918	 0.293584
H	-2.9633311873	-2.5956142323	-1.142060519	 0.125122
H	-3.0823669604	-3.1295293581	 0.5611692535	 0.145548
59.9095	159.6111	166.2174	213.6713	311.1763	342.5439	370.9223	448.7913	483.7332	532.9854	553.0687	681.9395	753.2233	763.1468	836.0821	893.6945	993.1875	1040.9569	1060.0935	1108.2345	1126.7596	1217.1514	1241.3699	1250.1586	1333.0589	1387.9197	1409.427	1432.5028	1505.7234	1728.3857	1871.2819	3036.3892	3062.6117	3134.0168	3792.5761	3803.8781
ON=C1C(O)COC1=O	ON=C1[C@@H](O)COC1=O	
InChI=1S/C4H5NO4/c6-2-1-9-4(7)3(2)5-8/h2,6,8H,1H2	InChI=1S/C4H5NO4/c6-2-1-9-4(7)3(2)5-8/h2,6,8H,1H2/t2-/m0/s1
