18
gdb 93545	3.47192	1.26894	0.97401	2.541	78.04	-0.2376	-0.0039	0.2337	1204.0521	0.14962	-435.282936	-435.274624	-435.27368	-435.316117	31.451	
C	 0.1800438645	 1.6241045035	 0.0072408047	-0.389761
C	-0.1091693337	 0.1196993773	-0.068582478	 0.034113
C	 0.7534847518	-0.5412119067	-1.1427675286	-0.10254
O	 0.2872694095	-1.848706349	-1.487942113	-0.217057
C	 0.6273167148	-2.9061765737	-0.7363255293	 0.447735
N	 0.710040785	-4.0412248545	-1.2984320881	-0.53314
N	 0.8505994715	-2.665738705	 0.630463661	-0.376959
C	 0.4721502523	-1.6190247311	 1.4772685815	 0.092637
N	 0.0527203241	-0.4461477914	 1.2616496166	-0.24838
H	 1.2324899377	 1.8054076454	 0.2505610738	 0.118662
H	-0.0477773676	 2.1206883726	-0.941006703	 0.112093
H	-0.4259399308	 2.0742605703	 0.7961246055	 0.133623
H	-1.1581706268	-0.0175939205	-0.3679345159	 0.104229
H	 0.6930884623	 0.0237766666	-2.0758969895	 0.127001
H	 1.8046999444	-0.5776499331	-0.8313128287	 0.120269
H	 0.8661937647	-4.7868934486	-0.6240783642	 0.210309
H	 1.1667774712	-3.4871320601	 1.1228090468	 0.252419
H	 0.5968501152	-1.9260134822	 2.5183594285	 0.114747
63.5946	103.3661	215.0379	246.8722	289.7429	342.1942	363.8242	410.4228	505.8161	537.7785	593.8869	642.1524	728.2917	785.3143	793.9672	845.2177	899.173	917.3318	941.2377	954.5359	1030.2657	1105.9448	1131.067	1138.2965	1165.3406	1190.6418	1284.3958	1305.0127	1322.7774	1377.1436	1406.5303	1421.5774	1465.6777	1484.6434	1487.6091	1497.0037	1503.6938	1744.4625	1767.8662	3005.6831	3035.1506	3041.1211	3099.2705	3104.1067	3111.6187	3133.0281	3515.5458	3620.3753
CC1COC(=N)NC=N1	C[C@H]1CO[C]([NH])NC=N1	
InChI=1S/C5H9N3O/c1-4-2-9-5(6)8-3-7-4/h3-4H,2H2,1H3,(H2,6,7,8)	InChI=1S/C5H9N3O/c1-4-2-9-5(6)8-3-7-4/h3-4H,2H2,1H3,(H2,6,7,8)/t4-/m0/s1
