21
gdb 116004	2.05981	1.32561	0.90781	2.7999	81.2	-0.2304	0.0158	0.2462	1353.2272	0.182212	-424.232446	-424.222851	-424.221907	-424.267587	34.98	
C	-0.184012468	 1.5884451327	-0.0449976669	-0.377473
C	 0.1618208414	 0.0921676903	 0.063685265	-0.299185
C	 0.7294908777	-0.4842524865	-1.1996028614	 0.322802
C	 1.9392885931	-1.0044109649	-1.3953085208	-0.22162
C	 2.1033858262	-1.4530106923	-2.8172355305	-0.117172
O	 0.8656746827	-1.1240712015	-3.449584131	-0.294328
C	-0.047579455	-0.5629416062	-2.4940253724	 0.003796
C	-1.2872296931	-1.4652859772	-2.4446093046	-0.055871
O	-1.8295398945	-1.6400521614	-3.7361612613	-0.424335
H	 0.7023811152	 2.1760448254	-0.3029163193	 0.124105
H	-0.9420109354	 1.7724392876	-0.8124771598	 0.126572
H	-0.5756938048	 1.9621510437	 0.905619601	 0.117916
H	 0.8789599612	-0.059397548	 0.8775382937	 0.106993
H	-0.7450608933	-0.4599933471	 0.3456762273	 0.113304
H	 2.7203936507	-1.1048004384	-0.6510955936	 0.100557
H	 2.9267574179	-0.9364615004	-3.3345389566	 0.107771
H	 2.2971694759	-2.5339557945	-2.9031772749	 0.105544
H	-0.3597026811	 0.4264343396	-2.8628007945	 0.087393
H	-1.0066672345	-2.4278268844	-1.9852373412	 0.081255
H	-2.0685272346	-1.0099492155	-1.8256182332	 0.101823
H	-1.0797723977	-1.8724045109	-4.2984622249	 0.290154
53.1075	89.0861	117.3102	157.945	182.0416	224.7608	288.2717	312.6218	417.0572	479.0475	492.6477	545.4379	630.6575	765.2831	793.0121	820.0095	835.0812	928.6644	955.7387	979.8585	1019.9207	1043.4293	1066.4695	1079.3708	1083.8673	1102.1461	1112.6931	1193.1361	1207.2507	1225.9156	1264.6246	1285.4323	1331.9196	1355.9419	1367.5822	1383.2282	1388.7328	1410.8761	1437.2722	1482.1692	1499.0779	1500.4848	1507.2861	1524.418	1724.6428	2963.6722	2974.9546	2985.5751	2992.3909	3016.8586	3040.2676	3064.7133	3067.5095	3112.2001	3113.7659	3205.3803	3779.1665
CCC1=CCOC1CO	CCC1=CCO[C@H]1CO	
InChI=1S/C7H12O2/c1-2-6-3-4-9-7(6)5-8/h3,7-8H,2,4-5H2,1H3	InChI=1S/C7H12O2/c1-2-6-3-4-9-7(6)5-8/h3,7-8H,2,4-5H2,1H3/t7-/m0/s1
