17
gdb 82731	2.73653	1.88003	1.41155	3.0526	71.07	-0.2438	-0.0212	0.2226	931.8114	0.137616	-421.822943	-421.816002	-421.815058	-421.854128	28.199	
O	 0.0552611459	 1.4317376698	 0.1358096917	-0.443534
C	-0.0117694543	 0.0356688002	 0.040186766	 0.066749
C	-1.421193567	-0.5505231972	-0.051809452	-0.087296
C	-2.1217715965	-0.115595046	-1.3778007081	-0.241302
C	-1.6212690239	-1.4150229809	-2.0080368318	-0.05636
C	-1.2093280012	-1.9693858131	-0.672716693	-0.099801
C	-0.1291651393	-1.6661666295	-1.6933438532	-0.158722
C	 0.6500702872	-0.4835067257	-1.2439142712	 0.368412
O	 1.6054091802	 0.0511619086	-1.7578682602	-0.353703
H	 0.830202311	 1.6905993835	-0.3852566134	 0.291865
H	 0.5135475685	-0.4522636739	 0.8837838993	 0.089362
H	-2.0047469296	-0.4717875204	 0.8630686461	 0.086384
H	-3.2092941463	-0.1268639236	-1.2769463724	 0.10988
H	-1.8069489597	 0.8381876874	-1.8101751791	 0.115196
H	-2.0480991024	-1.9338784008	-2.8578611297	 0.101184
H	-1.3690509975	-2.9383727279	-0.22012189	 0.10032
H	 0.3427867648	-2.4504017304	-2.2713379988	 0.111366
113.328	209.2082	259.8112	348.5551	426.699	467.4094	534.0232	571.8604	631.9569	664.5597	746.1434	788.2703	811.5698	866.7304	890.1938	909.987	946.9044	969.1542	994.3856	1042.0373	1050.5108	1062.6142	1084.7512	1132.3801	1141.6361	1179.6797	1190.2291	1215.349	1233.7042	1276.7248	1298.9006	1333.4345	1349.3324	1371.3048	1416.8399	1498.6358	1826.8141	2922.0766	3061.5608	3115.1245	3135.4929	3183.7054	3201.7224	3213.4229	3717.7735
OC1C2CC3C2C3C1=O	O[C@H]1[C@H]2C[C@@H]3[C@H]2[C@@H]3C1=O	
InChI=1S/C7H8O2/c8-6-3-1-2-4(3)5(2)7(6)9/h2-6,8H,1H2	InChI=1S/C7H8O2/c8-6-3-1-2-4(3)5(2)7(6)9/h2-6,8H,1H2/t2-,3+,4-,5-,6+/m1/s1
