20
gdb 62839	2.59992	1.82732	1.49107	2.1436	80.94	-0.2017	0.0694	0.2711	984.3614	0.169703	-403.006731	-402.998561	-402.997617	-403.038635	33.435	
C	-0.1331050288	 1.5318857562	 0.0489583195	-0.485816
C	 0.0622953349	 0.0180846046	-0.0215115074	 0.427335
O	-1.1792142135	-0.5554959077	-0.3912726763	-0.477322
C	 1.3287940044	-0.6168936889	-0.6537181445	-0.104252
C	 2.1609899034	-0.0834203782	 0.5945188502	-0.295135
C	 0.85347587	-0.7627950808	 1.1112987715	 0.216248
C	 0.0946272359	-1.7255620132	 2.0474403135	-0.325585
C	 0.0108424793	-2.6519483106	 0.770920266	-0.175265
N	 1.1986665935	-1.8898500356	 0.1934919754	-0.155127
H	 0.7393603474	 2.089281575	 0.3870612507	 0.126267
H	-0.4013809332	 1.9203138978	-0.9432249257	 0.107578
H	-0.9650217679	 1.7532549605	 0.7251538213	 0.130146
H	-1.539296882	-0.0314607659	-1.1138845127	 0.277582
H	 1.6508224946	-0.620076087	-1.6998988665	 0.073993
H	 3.0502259179	-0.6766383152	 0.7963810075	 0.117404
H	 2.3346871178	 0.9879528431	 0.6884107709	 0.091631
H	 0.7159329134	-2.1538188608	 2.836515528	 0.114218
H	-0.8458923738	-1.3608036963	 2.4640933426	 0.107071
H	 0.2952825278	-3.6958574198	 0.9224681313	 0.096211
H	-0.9427828612	-2.5895353472	 0.2527235849	 0.13282
160.8552	185.0591	198.9642	219.7852	320.1384	363.0654	428.7267	437.9542	474.0195	529.5696	623.7957	637.3008	692.5401	738.8914	769.7489	822.807	828.3334	882.096	912.3108	957.4544	965.4667	1008.7537	1039.3308	1051.6236	1076.1236	1102.4158	1125.6326	1147.9343	1155.0927	1179.7852	1186.78	1207.4388	1221.1273	1229.773	1250.5578	1285.7942	1373.0926	1408.0872	1467.2483	1482.9333	1493.403	1495.6716	1507.0154	3017.6636	3059.3812	3069.5161	3076.5957	3087.2138	3099.3166	3133.8669	3150.1701	3162.6996	3180.7746	3809.3517
CC1(O)C2CC11CCN21	C[C@@]1(O)[C@H]2C[C@]31CCN23	
InChI=1S/C7H11NO/c1-6(9)5-4-7(6)2-3-8(5)7/h5,9H,2-4H2,1H3	InChI=1S/C7H11NO/c1-6(9)5-4-7(6)2-3-8(5)7/h5,9H,2-4H2,1H3/t5-,6-,7+/m1/s1
