19
gdb 39074	2.32857	2.13636	1.53294	1.2888	80.05	-0.2325	0.0157	0.2482	943.7211	0.162197	-385.903586	-385.896604	-385.89566	-385.934632	28.841	
C	 0.0458637044	 1.4874576054	 0.4173270578	-0.261066
C	 1.1496878729	 2.3062295582	-0.2092876355	-0.045096
C	 1.900467566	 2.0957324397	-1.2942473096	-0.045095
C	 1.9206181597	 0.9618302474	-2.291905484	-0.261066
C	 1.2866124587	-0.3629473773	-1.8379056381	 0.042115
O	-0.0509833864	-0.1456546588	-1.3871045218	-0.265625
C	-0.0079935053	 0.0000227849	 0.0329413687	 0.042114
C	 1.2379452896	-0.7554775623	 0.439619477	-0.084187
C	 1.9830877948	-0.9643883137	-0.6371883394	-0.084185
H	 0.1175686587	 1.5663288305	 1.5111327322	 0.098846
H	-0.9192603105	 1.9448916069	 0.1541286938	 0.117767
H	 1.32250756	 3.2481514678	 0.3101347861	 0.08167
H	 2.6049599858	 2.8885886236	-1.5431505687	 0.08167
H	 1.4057785618	 1.2930145796	-3.2058204491	 0.117767
H	 2.9592313088	 0.7696092623	-2.5953965136	 0.098846
H	 1.242930753	-1.0490963181	-2.693338208	 0.080116
H	-0.9262642734	-0.4409158063	 0.441383178	 0.080115
H	 1.471975723	-1.009958374	 1.4654016748	 0.102648
H	 2.9604156482	-1.4272618158	-0.6855461605	 0.102648
132.7868	211.8669	297.9898	340.2745	356.3213	414.9624	542.3113	590.7642	682.0596	717.8839	765.7472	795.8037	835.9467	843.8797	886.5435	888.3316	924.6411	929.2724	950.2008	988.3037	1016.0943	1017.2549	1050.7137	1059.5344	1111.2644	1137.4575	1215.7753	1217.6852	1241.691	1296.2054	1320.4721	1333.4665	1354.5569	1369.3448	1380.284	1401.7796	1434.3142	1459.4229	1459.6469	1687.3529	1728.8707	2999.123	2999.3657	3023.595	3028.9333	3030.3238	3032.3829	3115.7269	3141.0617	3205.5989	3231.1133
C1C=CCC2OC1C=C2	C1C=CC[C@@H]2O[C@H]1C=C2	
InChI=1S/C8H10O/c1-2-4-8-6-5-7(3-1)9-8/h1-2,5-8H,3-4H2	InChI=1S/C8H10O/c1-2-4-8-6-5-7(3-1)9-8/h1-2,5-8H,3-4H2/t7-,8+
