17
gdb 8216	5.19154	1.21498	1.07934	2.8654	65.67	-0.2463	0.0237	0.2699	1110.0009	0.1414	-400.984655	-400.976294	-400.97535	-401.018568	29.02	
C	 0.1221415578	 1.423510196	 0.0003178627	-0.461573
C	-0.099737708	-0.0654139586	 0.0493621633	 0.39045
N	-0.6290054456	-0.7656966084	 0.9669764557	-0.520199
O	 0.3578183301	-0.6445416118	-1.0837908977	-0.244968
C	 0.2568002997	-2.0609798377	-1.1455880433	 0.106539
C	-1.1282174299	-2.6601844849	-1.4417958576	-0.079661
O	-0.6311515955	-3.2798129351	-2.6513096027	-0.276776
C	 0.6429582394	-2.6165551845	-2.5224883087	-0.103742
H	 1.1894263817	 1.6418519526	-0.102758761	 0.148756
H	-0.3802881168	 1.8497377799	-0.873258333	 0.149638
H	-0.2571929762	 1.9054667138	 0.9025201645	 0.128861
H	-0.9143081579	-0.1801570802	 1.7483400127	 0.222294
H	 0.763405587	-2.5030809367	-0.2865565044	 0.107286
H	-1.5080834202	-3.3916645464	-0.7226690551	 0.115512
H	-1.8995580891	-1.9079632491	-1.6460105711	 0.104485
H	 0.7878998011	-1.8334622058	-3.2776498155	 0.107282
H	 1.4825066625	-3.3196818832	-2.5558830588	 0.105817
66.8006	72.0206	106.2908	124.409	189.126	343.2209	379.8617	464.8856	577.8419	598.9076	758.9098	856.0415	880.7134	888.2205	918.6962	976.2158	1024.4665	1032.2359	1064.6016	1068.5927	1097.4463	1129.2977	1147.7541	1151.936	1187.4878	1262.7405	1302.3687	1342.8059	1374.5223	1402.6306	1430.0966	1471.1979	1481.9173	1500.0394	1526.8578	1725.6478	3016.8328	3032.6433	3049.8428	3068.3627	3087.6809	3107.6037	3113.3115	3145.8933	3518.2569
CC(=N)OC1COC1	C[C]([NH])OC1COC1	
InChI=1S/C5H9NO2/c1-4(6)8-5-2-7-3-5/h5-6H,2-3H2,1H3	InChI=1S/C5H9NO2/c1-4(6)8-5-2-7-3-5/h5-6H,2-3H2,1H3
