22
gdb 15419	4.92326	0.86104	0.7965	1.035	80.19	-0.248	0.09	0.338	1530.6637	0.198853	-350.183931	-350.174104	-350.17316	-350.219305	34.771	
C	-0.0992861205	 1.5536750522	-0.4466245759	-0.372413
C	-0.0093018506	 0.1626509111	 0.1926916897	-0.196884
C	-1.3509794248	-0.5448409258	 0.2179972472	 0.008911
C	-1.8320086011	-1.3621270656	-0.956920017	-0.284354
C	-1.5155866101	-2.0427307681	 0.3530848172	-0.03078
C	-0.3474030315	-2.9846338892	 0.4702520043	-0.073272
O	-0.7653123089	-4.269845493	 0.0511177569	-0.229779
C	 0.2450783658	-5.2382645052	 0.1795525246	-0.224058
H	 0.8744036875	 2.0535659103	-0.4500077537	 0.108942
H	-0.450124104	 1.4879037318	-1.4817826974	 0.118995
H	-0.8008282975	 2.1938611894	 0.0997313195	 0.113291
H	 0.7240886252	-0.4382925989	-0.3566158452	 0.095636
H	 0.377507987	 0.2574364675	 1.2161960188	 0.095437
H	-2.1221317823	 0.031798544	 0.7254457033	 0.079363
H	-2.86710417	-1.2871468793	-1.2710480274	 0.108778
H	-1.1320671014	-1.5187719267	-1.7728525445	 0.108325
H	-2.3708226033	-2.3683810582	 0.9390330467	 0.087874
H	 0.5017515985	-2.6445124824	-0.1448372998	 0.080388
H	 0.0114148522	-3.0292572251	 1.5140574327	 0.081734
H	 1.1280180257	-4.9965798926	-0.4348124418	 0.099224
H	 0.5796394783	-5.3482290562	 1.2242115504	 0.099925
H	-0.1678955443	-6.1916816698	-0.1595659886	 0.124718
56.9138	82.4663	92.7542	112.2218	205.1998	230.7883	240.2532	290.7841	312.8116	409.3373	465.7741	554.8469	756.3459	798.3746	834.641	880.4941	909.8943	951.248	991.5428	992.2796	1043.8836	1062.2698	1076.6092	1117.204	1145.4068	1153.8119	1175.769	1196.1463	1201.4847	1227.3238	1250.1024	1277.7993	1297.4811	1340.3944	1377.7186	1409.556	1420.9165	1448.5638	1480.3194	1484.2192	1485.7034	1497.4169	1498.5662	1504.0659	1507.8695	1526.5964	2942.3471	2962.7468	2981.7155	3002.0563	3017.1753	3031.4987	3058.1764	3099.104	3105.0048	3110.014	3120.1975	3124.9237	3145.3163	3209.7697
CCC1CC1COC	CC[C@H]1C[C@H]1COC	
InChI=1S/C7H14O/c1-3-6-4-7(6)5-8-2/h6-7H,3-5H2,1-2H3	InChI=1S/C7H14O/c1-3-6-4-7(6)5-8-2/h6-7H,3-5H2,1-2H3/t6-,7-/m0/s1
