19
gdb 67453	2.21373	1.90088	1.84165	2.0911	73.9	-0.2424	0.0698	0.3121	928.1126	0.160363	-423.003871	-422.996424	-422.995479	-423.035603	29.467	
C	-0.0166946225	 1.5379548141	 0.0495278084	-0.531549
C	 0.0244629679	 0.0336678307	-0.0060453136	 0.272323
C	 0.5782030537	-0.871913967	-1.1481404652	 0.056909
C	 1.5833496519	-1.5148618246	-0.1745432913	-0.256855
C	 0.8491313306	-0.8145632432	 1.0138752253	 0.058668
O	-0.0377146163	-1.6395447237	 1.7523072666	-0.275522
C	-1.3449396759	-1.6176549649	 1.1755522982	-0.092562
C	-1.2442306565	-0.836365649	-0.125723266	 0.053882
O	-0.6646364983	-1.610046324	-1.2053477452	-0.315104
H	 0.9912945868	 1.9659676461	 0.0231937373	 0.12318
H	-0.5775315485	 1.954228892	-0.7941761129	 0.12551
H	-0.4955856049	 1.8832384206	 0.9735608453	 0.126651
H	 0.9042626738	-0.5364275537	-2.1352219295	 0.076318
H	 1.6153415395	-2.6058905049	-0.1540076879	 0.112423
H	 2.5939639445	-1.1158837668	-0.3107489609	 0.098324
H	 1.4913621802	-0.2810111608	 1.719546838	 0.080116
H	-1.6865549956	-2.6435886459	 0.9964352393	 0.115141
H	-2.0462573159	-1.1304496654	 1.8688760893	 0.094714
H	-2.1838029145	-0.3628437396	-0.4303690052	 0.077433
102.7364	199.8273	202.9938	245.6093	365.9845	374.1256	396.2519	579.4722	654.9725	677.8736	749.3852	796.4176	859.8086	872.0497	878.2917	925.2965	927.966	963.3993	979.1814	1026.6346	1053.729	1084.1645	1101.8054	1146.5222	1163.0709	1177.2737	1184.6853	1214.4161	1218.6433	1242.3813	1267.8602	1297.6515	1344.5061	1345.889	1364.9365	1400.2472	1413.4299	1451.8331	1490.5698	1494.2078	1504.7052	2997.0176	3023.3437	3050.2819	3052.1343	3061.7265	3073.0321	3085.9978	3087.5234	3094.616	3124.6344
CC12C3CC1OCC2O3	C[C@@]12[C@H]3C[C@@H]1OC[C@@H]2O3	
InChI=1S/C7H10O2/c1-7-4-2-5(7)9-6(7)3-8-4/h4-6H,2-3H2,1H3	InChI=1S/C7H10O2/c1-7-4-2-5(7)9-6(7)3-8-4/h4-6H,2-3H2,1H3/t4-,5+,6-,7-/m0/s1
