18
gdb 84579	2.85311	1.76139	1.27947	0.8637	76.27	-0.2294	0.0049	0.2343	999.6961	0.151324	-398.151247	-398.143919	-398.142974	-398.183313	28.305	
C	-0.2329809942	 1.5592643825	-0.1465821026	-0.391259
C	 0.0378069452	 0.0572775805	-0.0573083975	 0.017173
N	 0.896431605	-0.3567952003	-1.1930378516	-0.233709
C	 1.9596466964	-0.8625753603	-0.7171878657	 0.035285
N	 2.0453589843	-0.9964628468	 0.680812591	-0.094379
C	 3.0818617842	-0.4041420466	 1.4260384507	 0.04237
N	 2.7507207378	 0.3829770663	 2.3666544059	-0.228447
C	 1.2777934724	 0.4929580471	 2.3516956327	-0.196413
C	 0.7713304941	-0.4604775566	 1.2303457884	-0.025729
H	 0.6934764613	 2.136068405	-0.0638445618	 0.126274
H	-0.6834373376	 1.7885983612	-1.1155345707	 0.133903
H	-0.9193854973	 1.8879198223	 0.6401130476	 0.115507
H	-0.9165210527	-0.4704525548	-0.1525938576	 0.092937
H	 2.7920974764	-1.2022465228	-1.3265987957	 0.134367
H	 4.110534784	-0.6456271623	 1.1754207658	 0.135324
H	 0.8820179222	 0.1979481897	 3.327399255	 0.120576
H	 1.0034286874	 1.5420959891	 2.1999238523	 0.120177
H	 0.201515301	-1.2850824833	 1.6656686638	 0.096044
65.5137	153.0646	246.3659	275.0353	331.8094	427.1085	478.2666	572.2785	651.5961	679.9668	718.0371	796.3142	861.6609	880.9479	926.6969	932.7764	955.0739	964.9672	997.7464	1014.3701	1081.4063	1115.4593	1147.9221	1199.4032	1213.5447	1219.8427	1298.5019	1308.3223	1318.1575	1328.5202	1345.4377	1353.7296	1383.8074	1407.6036	1487.0364	1489.2864	1506.7286	1675.3428	1707.5101	3038.9385	3043.3399	3056.1717	3065.3986	3092.7748	3111.0351	3123.9355	3183.768	3190.8251
CC1N=CN2C=NCC12	C[C@H]1N=CN2C=NC[C@@H]12	
InChI=1S/C6H9N3/c1-5-6-2-7-3-9(6)4-8-5/h3-6H,2H2,1H3	InChI=1S/C6H9N3/c1-5-6-2-7-3-9(6)4-8-5/h3-6H,2H2,1H3/t5-,6+/m1/s1
