17
gdb 29552	3.19625	1.64576	1.10126	3.8263	82.29	-0.2005	-0.014	0.1865	1068.5197	0.139142	-380.926068	-380.918823	-380.917879	-380.957654	28.063	
C	-0.0218417275	 1.5148709145	 0.0190307086	-0.501033
C	-0.0082217966	 0.0202773324	 0.0002129313	 0.199804
C	-0.0264330701	-0.7971460417	-1.0708995222	-0.208306
C	-0.0024297596	-2.2547099007	-0.655027407	-0.248069
N	 0.0316486341	-2.1306139952	 0.7972374848	-0.036759
C	 0.0660725234	-2.8972734569	 1.918087314	-0.007069
N	 0.0852771638	-2.1506836983	 3.0067113337	-0.275633
C	 0.0623769842	-0.8431288562	 2.5731827741	-0.223373
C	 0.0287753839	-0.8088871197	 1.1985846502	 0.28023
H	 0.8680005536	 1.9076603092	 0.5241724259	 0.139162
H	-0.0522258914	 1.9253638135	-0.992946939	 0.128217
H	-0.8911998711	 1.8910708628	 0.5703276871	 0.139129
H	-0.0545755958	-0.4933789416	-2.1087385761	 0.104619
H	-0.8911735391	-2.8052862535	-0.9879968928	 0.137624
H	 0.8794502513	-2.7883872174	-1.0309878312	 0.137622
H	 0.0757859037	-3.9765975064	 1.8949540849	 0.127918
H	 0.0714708332	-0.0207093047	 3.2714601839	 0.105916
152.0617	181.2077	196.132	238.9266	272.6928	493.3525	513.1763	591.3982	663.5809	664.3075	712.8217	766.9815	789.447	803.7414	824.868	945.6513	962.6502	991.8875	1019.9123	1067.1451	1101.633	1127.8995	1187.1205	1187.6277	1246.2677	1268.9143	1313.4929	1334.2978	1372.4886	1406.5561	1419.8005	1477.5559	1478.1256	1489.9313	1510.2401	1593.5815	1664.4642	3023.7131	3031.851	3053.2454	3083.4599	3122.8297	3224.5549	3250.4798	3254.0175
CC1=CCN2C=NC=C12	CC1=CCn2cncc12	
InChI=1S/C7H8N2/c1-6-2-3-9-5-8-4-7(6)9/h2,4-5H,3H2,1H3	InChI=1S/C7H8N2/c1-6-2-3-9-5-8-4-7(6)9/h2,4-5H,3H2,1H3
