18
gdb 93460	3.00733	1.39245	0.98366	2.2555	76.42	-0.2463	0.004	0.2503	1180.8308	0.15024	-435.334116	-435.325608	-435.324664	-435.367513	31.427	
C	-0.046764461	 1.4841879755	-0.0378518378	-0.341637
N	 0.0097825119	 0.0365243032	-0.1427234382	-0.127526
C	-1.2292891008	-0.7091587749	 0.036988345	-0.173248
C	-1.1299546656	-2.0798155434	-0.6273221582	-0.27056
C	 0.1022229689	-2.8201519626	-0.1706605424	 0.388526
N	 0.101800581	-4.0882479052	-0.0571096746	-0.521373
N	 1.1849110875	-1.9791072105	 0.0605477747	-0.408882
C	 1.2259013838	-0.5784295122	 0.0089158702	 0.479307
O	 2.2920272518	 0.0017780128	 0.0985880283	-0.411512
H	 0.9568047974	 1.878092771	-0.1897653577	 0.171286
H	-0.7219603557	 1.8879307277	-0.7997109473	 0.123071
H	-0.4066038437	 1.8045217995	 0.9497778044	 0.121962
H	-1.4707385364	-0.8160463179	 1.1066289558	 0.115658
H	-2.0396616496	-0.132078409	-0.418160198	 0.119027
H	-2.0054956884	-2.6939768324	-0.4150399405	 0.139545
H	-1.0649235748	-1.9475231079	-1.7143094381	 0.134948
H	 1.0171432688	-4.4419896218	 0.230800852	 0.205836
H	 2.0937946049	-2.3846613217	 0.2321596924	 0.255573
79.3678	123.5405	149.5291	169.0414	242.4795	339.4235	380.1799	430.9553	476.1071	553.266	590.0955	604.7076	706.7099	744.756	769.8201	841.0911	881.8894	950.3577	997.7241	1066.2939	1082.0964	1140.3553	1157.0456	1194.2608	1216.1526	1261.7784	1290.4635	1331.3348	1357.7199	1412.0012	1417.7439	1437.222	1463.4477	1469.2847	1497.1971	1506.6072	1539.13	1738.4013	1794.3158	2979.318	3008.8394	3042.7767	3072.2667	3077.7224	3135.9499	3169.1652	3441.6458	3616.1582
CN1CCC(=N)NC1=O	CN1CC[C]([NH])NC1=O	
InChI=1S/C5H9N3O/c1-8-3-2-4(6)7-5(8)9/h2-3H2,1H3,(H2,6,7,9)	InChI=1S/C5H9N3O/c1-8-3-2-4(6)7-5(8)9/h2-3H2,1H3,(H2,6,7,9)
