19
gdb 56257	2.38865	1.17055	0.96987	1.8613	70.93	-0.2411	-0.0251	0.2159	1280.0415	0.155906	-460.138288	-460.128319	-460.127375	-460.174767	34.41	
C	 0.8663485103	-0.5090265338	 0.2942149802	-0.47373
C	-0.4656517658	-0.9749426455	-0.2560422577	 0.37046
O	-1.3419631874	-1.4362223895	 0.4383737543	-0.300138
C	-0.6906450161	-0.7699550962	-1.7624438342	-0.167024
O	 0.4049574604	-1.1452078812	-2.5753830649	-0.237625
C	 0.41396326	-2.5097281102	-2.9677207187	-0.110402
C	 0.8277404814	-3.4600016627	-1.8630937867	 0.061418
C	-0.1589412947	-4.1849437603	-1.049696986	-0.168867
O	 0.5411996909	-4.8356013194	-2.1112238676	-0.233176
H	 1.6901172746	-0.8313740004	-0.3465059793	 0.14932
H	 0.8827778439	 0.588296772	 0.2970142453	 0.145182
H	 0.9970237032	-0.8682492551	 1.31540897	 0.141276
H	-1.6123574584	-1.294906926	-2.0442301151	 0.115031
H	-0.8435378378	 0.3051444236	-1.9297973639	 0.125752
H	-0.5701878161	-2.8168257682	-3.3517006508	 0.107063
H	 1.1323473046	-2.5720481781	-3.7916326312	 0.120976
H	 1.8135782048	-3.2734166589	-1.4343104349	 0.10001
H	 0.106154217	-4.5075678197	-0.0446962789	 0.126648
H	-1.221134895	-4.0180071302	-1.21837716	 0.127824
49.7364	60.5393	82.0713	90.336	118.2815	203.5664	289.4601	352.1959	386.5395	416.7963	491.677	517.9213	568.65	774.235	832.8376	858.4501	878.6534	906.8001	955.381	1008.1584	1024.2938	1084.1409	1108.1371	1123.4171	1157.6255	1164.933	1179.6348	1233.5502	1262.9742	1279.9004	1311.1806	1367.5085	1379.12	1390.298	1444.6609	1463.6312	1466.316	1473.2731	1490.0108	1527.5525	1812.3225	3001.5853	3008.6269	3039.4704	3062.2317	3078.8101	3094.3278	3104.0395	3112.5742	3162.3695	3183.919
CC(=O)COCC1CO1	CC(=O)COC[C@H]1CO1	
InChI=1S/C6H10O3/c1-5(7)2-8-3-6-4-9-6/h6H,2-4H2,1H3	InChI=1S/C6H10O3/c1-5(7)2-8-3-6-4-9-6/h6H,2-4H2,1H3/t6-/m0/s1
